file 84813245 1607076214                                        
version 2
run General-0-20201204-18:03:01-1388
attr configname General
attr datetime 20201204-18:03:01
attr experiment General
attr inifile omnetpp.ini
attr iterationvars ""
attr iterationvarsf ""
attr measurement ""
attr network TestFieldScenario
attr processid 1388
attr repetition 0
attr replication #0
attr resultdir results
attr runnumber 0
attr seedset 0
param *.playgroundSizeX 25000m
param *.playgroundSizeY 500m
param *.playgroundSizeZ 50m
param *.annotations.draw true
param *.manager.updateInterval 1s
param *.manager.host "\"localhost\""
param *.manager.port 9999
param *.manager.moduleName "\"car\""
param *.manager.autoShutdown true
param *.manager.launchConfig "xmldoc(\"test4.launchd.xml\")"
param *.numRSUs 17
param *.rsu[0].mobility.x 10
param *.rsu[0].mobility.y 40
param *.rsu[0].mobility.z 50
param *.rsu[1].mobility.x 310
param *.rsu[1].mobility.y 40
param *.rsu[1].mobility.z 50
param *.rsu[2].mobility.x 610
param *.rsu[2].mobility.y 40
param *.rsu[2].mobility.z 50
param *.rsu[3].mobility.x 910
param *.rsu[3].mobility.y 40
param *.rsu[3].mobility.z 50
param *.rsu[4].mobility.x 1210
param *.rsu[4].mobility.y 40
param *.rsu[4].mobility.z 50
param *.rsu[5].mobility.x 1510
param *.rsu[5].mobility.y 40
param *.rsu[5].mobility.z 50
param *.rsu[6].mobility.x 1810
param *.rsu[6].mobility.y 40
param *.rsu[6].mobility.z 50
param *.rsu[7].mobility.x 2110
param *.rsu[7].mobility.y 40
param *.rsu[7].mobility.z 50
param *.rsu[8].mobility.x 2410
param *.rsu[8].mobility.y 40
param *.rsu[8].mobility.z 50
param *.rsu[9].mobility.x 2710
param *.rsu[9].mobility.y 40
param *.rsu[9].mobility.z 50
param *.rsu[10].mobility.x 3010
param *.rsu[10].mobility.y 40
param *.rsu[10].mobility.z 50
param *.rsu[11].mobility.x 3310
param *.rsu[11].mobility.y 40
param *.rsu[11].mobility.z 50
param *.rsu[12].mobility.x 3610
param *.rsu[12].mobility.y 40
param *.rsu[12].mobility.z 50
param *.rsu[13].mobility.x 3910
param *.rsu[13].mobility.y 40
param *.rsu[13].mobility.z 50
param *.rsu[14].mobility.x 4210
param *.rsu[14].mobility.y 40
param *.rsu[14].mobility.z 50
param *.rsu[15].mobility.x 4510
param *.rsu[15].mobility.y 40
param *.rsu[15].mobility.z 50
param *.rsu[16].mobility.x 4810
param *.rsu[16].mobility.y 40
param *.rsu[16].mobility.z 50
param *.rsu[*].applType "\"RoadSideDevice_HSY\""
param *.rsu[*].appl.headerLength "80 bit"
param *.rsu[*].appl.sendBeacons false
param *.rsu[*].appl.dataOnSch false
param *.rsu[*].appl.beaconInterval 10s
param *.rsu[*].appl.beaconUserPriority 7
param *.rsu[*].appl.dataUserPriority 5
param *.rsu[*].nic.phy80211p.antennaOffsetZ "0 m"
param *.connectionManager.sendDirect true
param *.connectionManager.maxInterfDist 80m
param *.connectionManager.drawMaxIntfDist true
param *.**.nic.mac1609_4.useServiceChannel false
param *.**.nic.mac1609_4.txPower 20mW
param *.**.nic.mac1609_4.bitrate 6Mbps
param *.**.nic.phy80211p.minPowerLevel -110dBm
param *.**.nic.phy80211p.useNoiseFloor true
param *.**.nic.phy80211p.noiseFloor -98dBm
param *.**.nic.phy80211p.decider "xmldoc(\"config.xml\")"
param *.**.nic.phy80211p.analogueModels "xmldoc(\"config.xml\")"
param *.**.nic.phy80211p.usePropagationDelay true
param *.**.nic.phy80211p.antenna "xmldoc(\"antenna.xml\", \"/root/Antenna[@id='monopole']\")"
param *.car[*].nic.phy80211p.antennaOffsetY "0 m"
param *.car[*].nic.phy80211p.antennaOffsetZ "1.895 m"
param *.car[*].applType "\"OnBoardUnit_HSY\""
param *.car[*].appl.headerLength "80 bit"
param *.car[*].appl.sendBeacons false
param *.car[*].appl.dataOnSch false
param *.car[*].appl.beaconInterval 1s
param *.car[*].veinsmobility.x 0
param *.car[*].veinsmobility.y 0
param *.car[*].veinsmobility.z 0
param *.car[*].veinsmobility.setHostSpeed false
param *.car[*0].veinsmobility.accidentCount 1
param *.car[*0].veinsmobility.accidentStart 7300s
param *.car[*0].veinsmobility.accidentDuration 50s

vector 0 TestFieldScenario.car[0].veinsmobility posx ETV
vector 1 TestFieldScenario.car[0].veinsmobility posy ETV
vector 2 TestFieldScenario.car[1].veinsmobility posx ETV
vector 3 TestFieldScenario.car[1].veinsmobility posy ETV
vector 4 TestFieldScenario.car[2].veinsmobility posx ETV
vector 5 TestFieldScenario.car[2].veinsmobility posy ETV
vector 6 TestFieldScenario.car[0].veinsmobility speed ETV
vector 7 TestFieldScenario.car[1].veinsmobility speed ETV
vector 8 TestFieldScenario.car[2].veinsmobility speed ETV
vector 9 TestFieldScenario.car[0].veinsmobility acceleration ETV
vector 10 TestFieldScenario.car[0].veinsmobility co2emission ETV
vector 11 TestFieldScenario.car[1].veinsmobility acceleration ETV
vector 12 TestFieldScenario.car[1].veinsmobility co2emission ETV
vector 13 TestFieldScenario.car[2].veinsmobility acceleration ETV
vector 14 TestFieldScenario.car[2].veinsmobility co2emission ETV
vector 15 TestFieldScenario.car[3].veinsmobility posx ETV
vector 16 TestFieldScenario.car[3].veinsmobility posy ETV
vector 17 TestFieldScenario.car[4].veinsmobility posx ETV
vector 18 TestFieldScenario.car[4].veinsmobility posy ETV
vector 19 TestFieldScenario.car[5].veinsmobility posx ETV
vector 20 TestFieldScenario.car[5].veinsmobility posy ETV
vector 21 TestFieldScenario.car[3].veinsmobility speed ETV
vector 22 TestFieldScenario.car[4].veinsmobility speed ETV
vector 23 TestFieldScenario.car[5].veinsmobility speed ETV
vector 24 TestFieldScenario.car[3].veinsmobility acceleration ETV
vector 25 TestFieldScenario.car[3].veinsmobility co2emission ETV
vector 26 TestFieldScenario.car[4].veinsmobility acceleration ETV
vector 27 TestFieldScenario.car[4].veinsmobility co2emission ETV
vector 28 TestFieldScenario.car[5].veinsmobility acceleration ETV
vector 29 TestFieldScenario.car[5].veinsmobility co2emission ETV
vector 30 TestFieldScenario.car[6].veinsmobility posx ETV
vector 31 TestFieldScenario.car[6].veinsmobility posy ETV
vector 32 TestFieldScenario.car[7].veinsmobility posx ETV
vector 33 TestFieldScenario.car[7].veinsmobility posy ETV
vector 34 TestFieldScenario.car[8].veinsmobility posx ETV
vector 35 TestFieldScenario.car[8].veinsmobility posy ETV
vector 36 TestFieldScenario.car[6].veinsmobility speed ETV
vector 37 TestFieldScenario.car[7].veinsmobility speed ETV
vector 38 TestFieldScenario.car[8].veinsmobility speed ETV
vector 39 TestFieldScenario.car[6].veinsmobility acceleration ETV
vector 40 TestFieldScenario.car[6].veinsmobility co2emission ETV
vector 41 TestFieldScenario.car[7].veinsmobility acceleration ETV
vector 42 TestFieldScenario.car[7].veinsmobility co2emission ETV
vector 43 TestFieldScenario.car[8].veinsmobility acceleration ETV
vector 44 TestFieldScenario.car[8].veinsmobility co2emission ETV
vector 45 TestFieldScenario.car[9].veinsmobility posx ETV
vector 46 TestFieldScenario.car[9].veinsmobility posy ETV
vector 47 TestFieldScenario.car[10].veinsmobility posx ETV
vector 48 TestFieldScenario.car[10].veinsmobility posy ETV
vector 49 TestFieldScenario.car[11].veinsmobility posx ETV
vector 50 TestFieldScenario.car[11].veinsmobility posy ETV
vector 51 TestFieldScenario.car[9].veinsmobility speed ETV
vector 52 TestFieldScenario.car[10].veinsmobility speed ETV
vector 53 TestFieldScenario.car[11].veinsmobility speed ETV
vector 54 TestFieldScenario.car[9].veinsmobility acceleration ETV
vector 55 TestFieldScenario.car[9].veinsmobility co2emission ETV
vector 56 TestFieldScenario.car[10].veinsmobility acceleration ETV
vector 57 TestFieldScenario.car[10].veinsmobility co2emission ETV
vector 58 TestFieldScenario.car[11].veinsmobility acceleration ETV
vector 59 TestFieldScenario.car[11].veinsmobility co2emission ETV
vector 60 TestFieldScenario.car[12].veinsmobility posx ETV
vector 61 TestFieldScenario.car[12].veinsmobility posy ETV
vector 62 TestFieldScenario.car[13].veinsmobility posx ETV
vector 63 TestFieldScenario.car[13].veinsmobility posy ETV
vector 64 TestFieldScenario.car[14].veinsmobility posx ETV
vector 65 TestFieldScenario.car[14].veinsmobility posy ETV
vector 66 TestFieldScenario.car[12].veinsmobility speed ETV
vector 67 TestFieldScenario.car[13].veinsmobility speed ETV
vector 68 TestFieldScenario.car[14].veinsmobility speed ETV
vector 69 TestFieldScenario.car[12].veinsmobility acceleration ETV
vector 70 TestFieldScenario.car[12].veinsmobility co2emission ETV
vector 71 TestFieldScenario.car[13].veinsmobility acceleration ETV
vector 72 TestFieldScenario.car[13].veinsmobility co2emission ETV
vector 73 TestFieldScenario.car[14].veinsmobility acceleration ETV
vector 74 TestFieldScenario.car[14].veinsmobility co2emission ETV
vector 75 TestFieldScenario.car[15].veinsmobility posx ETV
vector 76 TestFieldScenario.car[15].veinsmobility posy ETV
vector 77 TestFieldScenario.car[16].veinsmobility posx ETV
vector 78 TestFieldScenario.car[16].veinsmobility posy ETV
vector 79 TestFieldScenario.car[17].veinsmobility posx ETV
vector 80 TestFieldScenario.car[17].veinsmobility posy ETV
vector 81 TestFieldScenario.car[15].veinsmobility speed ETV
vector 82 TestFieldScenario.car[16].veinsmobility speed ETV
vector 83 TestFieldScenario.car[17].veinsmobility speed ETV
vector 84 TestFieldScenario.car[15].veinsmobility acceleration ETV
vector 85 TestFieldScenario.car[15].veinsmobility co2emission ETV
vector 86 TestFieldScenario.car[16].veinsmobility acceleration ETV
vector 87 TestFieldScenario.car[16].veinsmobility co2emission ETV
vector 88 TestFieldScenario.car[17].veinsmobility acceleration ETV
vector 89 TestFieldScenario.car[17].veinsmobility co2emission ETV
vector 90 TestFieldScenario.car[18].veinsmobility posx ETV
vector 91 TestFieldScenario.car[18].veinsmobility posy ETV
vector 92 TestFieldScenario.car[19].veinsmobility posx ETV
vector 93 TestFieldScenario.car[19].veinsmobility posy ETV
vector 94 TestFieldScenario.car[20].veinsmobility posx ETV
vector 95 TestFieldScenario.car[20].veinsmobility posy ETV
vector 96 TestFieldScenario.car[18].veinsmobility speed ETV
vector 97 TestFieldScenario.car[19].veinsmobility speed ETV
vector 98 TestFieldScenario.car[20].veinsmobility speed ETV
vector 99 TestFieldScenario.car[18].veinsmobility acceleration ETV
vector 100 TestFieldScenario.car[18].veinsmobility co2emission ETV
vector 101 TestFieldScenario.car[19].veinsmobility acceleration ETV
vector 102 TestFieldScenario.car[19].veinsmobility co2emission ETV
vector 103 TestFieldScenario.car[20].veinsmobility acceleration ETV
vector 104 TestFieldScenario.car[20].veinsmobility co2emission ETV
vector 105 TestFieldScenario.car[21].veinsmobility posx ETV
vector 106 TestFieldScenario.car[21].veinsmobility posy ETV
vector 107 TestFieldScenario.car[22].veinsmobility posx ETV
vector 108 TestFieldScenario.car[22].veinsmobility posy ETV
vector 109 TestFieldScenario.car[23].veinsmobility posx ETV
vector 110 TestFieldScenario.car[23].veinsmobility posy ETV
vector 111 TestFieldScenario.car[21].veinsmobility speed ETV
vector 112 TestFieldScenario.car[22].veinsmobility speed ETV
vector 113 TestFieldScenario.car[23].veinsmobility speed ETV
vector 114 TestFieldScenario.car[21].veinsmobility acceleration ETV
vector 115 TestFieldScenario.car[21].veinsmobility co2emission ETV
vector 116 TestFieldScenario.car[22].veinsmobility acceleration ETV
vector 117 TestFieldScenario.car[22].veinsmobility co2emission ETV
vector 118 TestFieldScenario.car[23].veinsmobility acceleration ETV
vector 119 TestFieldScenario.car[23].veinsmobility co2emission ETV
vector 120 TestFieldScenario.car[24].veinsmobility posx ETV
vector 121 TestFieldScenario.car[24].veinsmobility posy ETV
vector 122 TestFieldScenario.car[25].veinsmobility posx ETV
vector 123 TestFieldScenario.car[25].veinsmobility posy ETV
vector 124 TestFieldScenario.car[26].veinsmobility posx ETV
vector 125 TestFieldScenario.car[26].veinsmobility posy ETV
vector 126 TestFieldScenario.car[24].veinsmobility speed ETV
vector 127 TestFieldScenario.car[25].veinsmobility speed ETV
vector 128 TestFieldScenario.car[26].veinsmobility speed ETV
vector 129 TestFieldScenario.car[24].veinsmobility acceleration ETV
vector 130 TestFieldScenario.car[24].veinsmobility co2emission ETV
vector 131 TestFieldScenario.car[25].veinsmobility acceleration ETV
vector 132 TestFieldScenario.car[25].veinsmobility co2emission ETV
vector 133 TestFieldScenario.car[26].veinsmobility acceleration ETV
vector 134 TestFieldScenario.car[26].veinsmobility co2emission ETV
vector 135 TestFieldScenario.car[27].veinsmobility posx ETV
vector 136 TestFieldScenario.car[27].veinsmobility posy ETV
vector 137 TestFieldScenario.car[28].veinsmobility posx ETV
vector 138 TestFieldScenario.car[28].veinsmobility posy ETV
vector 139 TestFieldScenario.car[29].veinsmobility posx ETV
vector 140 TestFieldScenario.car[29].veinsmobility posy ETV
vector 141 TestFieldScenario.car[27].veinsmobility speed ETV
vector 142 TestFieldScenario.car[28].veinsmobility speed ETV
vector 143 TestFieldScenario.car[29].veinsmobility speed ETV
vector 144 TestFieldScenario.car[27].veinsmobility acceleration ETV
vector 145 TestFieldScenario.car[27].veinsmobility co2emission ETV
vector 146 TestFieldScenario.car[28].veinsmobility acceleration ETV
vector 147 TestFieldScenario.car[28].veinsmobility co2emission ETV
vector 148 TestFieldScenario.car[29].veinsmobility acceleration ETV
vector 149 TestFieldScenario.car[29].veinsmobility co2emission ETV
vector 150 TestFieldScenario.car[30].veinsmobility posx ETV
vector 151 TestFieldScenario.car[30].veinsmobility posy ETV
vector 152 TestFieldScenario.car[31].veinsmobility posx ETV
vector 153 TestFieldScenario.car[31].veinsmobility posy ETV
vector 154 TestFieldScenario.car[32].veinsmobility posx ETV
vector 155 TestFieldScenario.car[32].veinsmobility posy ETV
vector 156 TestFieldScenario.car[30].veinsmobility speed ETV
vector 157 TestFieldScenario.car[31].veinsmobility speed ETV
vector 158 TestFieldScenario.car[32].veinsmobility speed ETV
vector 159 TestFieldScenario.car[30].veinsmobility acceleration ETV
vector 160 TestFieldScenario.car[30].veinsmobility co2emission ETV
vector 161 TestFieldScenario.car[31].veinsmobility acceleration ETV
vector 162 TestFieldScenario.car[31].veinsmobility co2emission ETV
vector 163 TestFieldScenario.car[32].veinsmobility acceleration ETV
vector 164 TestFieldScenario.car[32].veinsmobility co2emission ETV
vector 165 TestFieldScenario.car[33].veinsmobility posx ETV
vector 166 TestFieldScenario.car[33].veinsmobility posy ETV
vector 167 TestFieldScenario.car[34].veinsmobility posx ETV
vector 168 TestFieldScenario.car[34].veinsmobility posy ETV
vector 169 TestFieldScenario.car[35].veinsmobility posx ETV
vector 170 TestFieldScenario.car[35].veinsmobility posy ETV
vector 171 TestFieldScenario.car[33].veinsmobility speed ETV
vector 172 TestFieldScenario.car[34].veinsmobility speed ETV
vector 173 TestFieldScenario.car[35].veinsmobility speed ETV
vector 174 TestFieldScenario.car[33].veinsmobility acceleration ETV
vector 175 TestFieldScenario.car[33].veinsmobility co2emission ETV
vector 176 TestFieldScenario.car[34].veinsmobility acceleration ETV
vector 177 TestFieldScenario.car[34].veinsmobility co2emission ETV
vector 178 TestFieldScenario.car[35].veinsmobility acceleration ETV
vector 179 TestFieldScenario.car[35].veinsmobility co2emission ETV
vector 180 TestFieldScenario.car[36].veinsmobility posx ETV
vector 181 TestFieldScenario.car[36].veinsmobility posy ETV
vector 182 TestFieldScenario.car[37].veinsmobility posx ETV
vector 183 TestFieldScenario.car[37].veinsmobility posy ETV
vector 184 TestFieldScenario.car[38].veinsmobility posx ETV
vector 185 TestFieldScenario.car[38].veinsmobility posy ETV
vector 186 TestFieldScenario.car[36].veinsmobility speed ETV
vector 187 TestFieldScenario.car[37].veinsmobility speed ETV
vector 188 TestFieldScenario.car[38].veinsmobility speed ETV
vector 189 TestFieldScenario.car[36].veinsmobility acceleration ETV
vector 190 TestFieldScenario.car[36].veinsmobility co2emission ETV
vector 191 TestFieldScenario.car[37].veinsmobility acceleration ETV
vector 192 TestFieldScenario.car[37].veinsmobility co2emission ETV
vector 193 TestFieldScenario.car[38].veinsmobility acceleration ETV
vector 194 TestFieldScenario.car[38].veinsmobility co2emission ETV
vector 195 TestFieldScenario.car[39].veinsmobility posx ETV
vector 196 TestFieldScenario.car[39].veinsmobility posy ETV
vector 197 TestFieldScenario.car[40].veinsmobility posx ETV
vector 198 TestFieldScenario.car[40].veinsmobility posy ETV
vector 199 TestFieldScenario.car[41].veinsmobility posx ETV
vector 200 TestFieldScenario.car[41].veinsmobility posy ETV
vector 201 TestFieldScenario.car[39].veinsmobility speed ETV
vector 202 TestFieldScenario.car[40].veinsmobility speed ETV
vector 203 TestFieldScenario.car[41].veinsmobility speed ETV
vector 204 TestFieldScenario.car[39].veinsmobility acceleration ETV
vector 205 TestFieldScenario.car[39].veinsmobility co2emission ETV
vector 206 TestFieldScenario.car[40].veinsmobility acceleration ETV
vector 207 TestFieldScenario.car[40].veinsmobility co2emission ETV
vector 208 TestFieldScenario.car[41].veinsmobility acceleration ETV
vector 209 TestFieldScenario.car[41].veinsmobility co2emission ETV
vector 210 TestFieldScenario.car[42].veinsmobility posx ETV
vector 211 TestFieldScenario.car[42].veinsmobility posy ETV
vector 212 TestFieldScenario.car[43].veinsmobility posx ETV
vector 213 TestFieldScenario.car[43].veinsmobility posy ETV
vector 214 TestFieldScenario.car[44].veinsmobility posx ETV
vector 215 TestFieldScenario.car[44].veinsmobility posy ETV
vector 216 TestFieldScenario.car[42].veinsmobility speed ETV
vector 217 TestFieldScenario.car[43].veinsmobility speed ETV
vector 218 TestFieldScenario.car[44].veinsmobility speed ETV
vector 219 TestFieldScenario.car[42].veinsmobility acceleration ETV
vector 220 TestFieldScenario.car[42].veinsmobility co2emission ETV
vector 221 TestFieldScenario.car[43].veinsmobility acceleration ETV
vector 222 TestFieldScenario.car[43].veinsmobility co2emission ETV
vector 223 TestFieldScenario.car[44].veinsmobility acceleration ETV
vector 224 TestFieldScenario.car[44].veinsmobility co2emission ETV
vector 225 TestFieldScenario.car[45].veinsmobility posx ETV
vector 226 TestFieldScenario.car[45].veinsmobility posy ETV
vector 227 TestFieldScenario.car[46].veinsmobility posx ETV
vector 228 TestFieldScenario.car[46].veinsmobility posy ETV
vector 229 TestFieldScenario.car[47].veinsmobility posx ETV
vector 230 TestFieldScenario.car[47].veinsmobility posy ETV
vector 231 TestFieldScenario.car[45].veinsmobility speed ETV
vector 232 TestFieldScenario.car[46].veinsmobility speed ETV
vector 233 TestFieldScenario.car[47].veinsmobility speed ETV
vector 234 TestFieldScenario.car[45].veinsmobility acceleration ETV
vector 235 TestFieldScenario.car[45].veinsmobility co2emission ETV
vector 236 TestFieldScenario.car[46].veinsmobility acceleration ETV
vector 237 TestFieldScenario.car[46].veinsmobility co2emission ETV
vector 238 TestFieldScenario.car[47].veinsmobility acceleration ETV
vector 239 TestFieldScenario.car[47].veinsmobility co2emission ETV
vector 240 TestFieldScenario.car[48].veinsmobility posx ETV
vector 241 TestFieldScenario.car[48].veinsmobility posy ETV
vector 242 TestFieldScenario.car[49].veinsmobility posx ETV
vector 243 TestFieldScenario.car[49].veinsmobility posy ETV
vector 244 TestFieldScenario.car[50].veinsmobility posx ETV
vector 245 TestFieldScenario.car[50].veinsmobility posy ETV
vector 246 TestFieldScenario.car[48].veinsmobility speed ETV
vector 247 TestFieldScenario.car[49].veinsmobility speed ETV
vector 248 TestFieldScenario.car[50].veinsmobility speed ETV
vector 249 TestFieldScenario.car[48].veinsmobility acceleration ETV
vector 250 TestFieldScenario.car[48].veinsmobility co2emission ETV
vector 251 TestFieldScenario.car[49].veinsmobility acceleration ETV
vector 252 TestFieldScenario.car[49].veinsmobility co2emission ETV
vector 253 TestFieldScenario.car[50].veinsmobility acceleration ETV
vector 254 TestFieldScenario.car[50].veinsmobility co2emission ETV
vector 255 TestFieldScenario.car[51].veinsmobility posx ETV
vector 256 TestFieldScenario.car[51].veinsmobility posy ETV
vector 257 TestFieldScenario.car[52].veinsmobility posx ETV
vector 258 TestFieldScenario.car[52].veinsmobility posy ETV
vector 259 TestFieldScenario.car[53].veinsmobility posx ETV
vector 260 TestFieldScenario.car[53].veinsmobility posy ETV
vector 261 TestFieldScenario.car[51].veinsmobility speed ETV
vector 262 TestFieldScenario.car[52].veinsmobility speed ETV
vector 263 TestFieldScenario.car[53].veinsmobility speed ETV
vector 264 TestFieldScenario.car[51].veinsmobility acceleration ETV
vector 265 TestFieldScenario.car[51].veinsmobility co2emission ETV
vector 266 TestFieldScenario.car[52].veinsmobility acceleration ETV
vector 267 TestFieldScenario.car[52].veinsmobility co2emission ETV
vector 268 TestFieldScenario.car[53].veinsmobility acceleration ETV
vector 269 TestFieldScenario.car[53].veinsmobility co2emission ETV
vector 270 TestFieldScenario.car[54].veinsmobility posx ETV
vector 271 TestFieldScenario.car[54].veinsmobility posy ETV
vector 272 TestFieldScenario.car[55].veinsmobility posx ETV
vector 273 TestFieldScenario.car[55].veinsmobility posy ETV
vector 274 TestFieldScenario.car[56].veinsmobility posx ETV
vector 275 TestFieldScenario.car[56].veinsmobility posy ETV
vector 276 TestFieldScenario.car[54].veinsmobility speed ETV
vector 277 TestFieldScenario.car[55].veinsmobility speed ETV
vector 278 TestFieldScenario.car[56].veinsmobility speed ETV
vector 279 TestFieldScenario.car[54].veinsmobility acceleration ETV
vector 280 TestFieldScenario.car[54].veinsmobility co2emission ETV
vector 281 TestFieldScenario.car[55].veinsmobility acceleration ETV
vector 282 TestFieldScenario.car[55].veinsmobility co2emission ETV
vector 283 TestFieldScenario.car[56].veinsmobility acceleration ETV
vector 284 TestFieldScenario.car[56].veinsmobility co2emission ETV
vector 285 TestFieldScenario.car[57].veinsmobility posx ETV
vector 286 TestFieldScenario.car[57].veinsmobility posy ETV
vector 287 TestFieldScenario.car[58].veinsmobility posx ETV
vector 288 TestFieldScenario.car[58].veinsmobility posy ETV
vector 289 TestFieldScenario.car[59].veinsmobility posx ETV
vector 290 TestFieldScenario.car[59].veinsmobility posy ETV
vector 291 TestFieldScenario.car[57].veinsmobility speed ETV
vector 292 TestFieldScenario.car[58].veinsmobility speed ETV
vector 293 TestFieldScenario.car[59].veinsmobility speed ETV
vector 294 TestFieldScenario.car[57].veinsmobility acceleration ETV
vector 295 TestFieldScenario.car[57].veinsmobility co2emission ETV
vector 296 TestFieldScenario.car[58].veinsmobility acceleration ETV
vector 297 TestFieldScenario.car[58].veinsmobility co2emission ETV
vector 298 TestFieldScenario.car[59].veinsmobility acceleration ETV
vector 299 TestFieldScenario.car[59].veinsmobility co2emission ETV
vector 300 TestFieldScenario.car[60].veinsmobility posx ETV
vector 301 TestFieldScenario.car[60].veinsmobility posy ETV
vector 302 TestFieldScenario.car[61].veinsmobility posx ETV
vector 303 TestFieldScenario.car[61].veinsmobility posy ETV
vector 304 TestFieldScenario.car[62].veinsmobility posx ETV
vector 305 TestFieldScenario.car[62].veinsmobility posy ETV
vector 306 TestFieldScenario.car[60].veinsmobility speed ETV
vector 307 TestFieldScenario.car[61].veinsmobility speed ETV
vector 308 TestFieldScenario.car[62].veinsmobility speed ETV
vector 309 TestFieldScenario.car[60].veinsmobility acceleration ETV
vector 310 TestFieldScenario.car[60].veinsmobility co2emission ETV
vector 311 TestFieldScenario.car[61].veinsmobility acceleration ETV
vector 312 TestFieldScenario.car[61].veinsmobility co2emission ETV
vector 313 TestFieldScenario.car[62].veinsmobility acceleration ETV
vector 314 TestFieldScenario.car[62].veinsmobility co2emission ETV
vector 315 TestFieldScenario.car[63].veinsmobility posx ETV
vector 316 TestFieldScenario.car[63].veinsmobility posy ETV
vector 317 TestFieldScenario.car[64].veinsmobility posx ETV
vector 318 TestFieldScenario.car[64].veinsmobility posy ETV
vector 319 TestFieldScenario.car[65].veinsmobility posx ETV
vector 320 TestFieldScenario.car[65].veinsmobility posy ETV
vector 321 TestFieldScenario.car[63].veinsmobility speed ETV
vector 322 TestFieldScenario.car[64].veinsmobility speed ETV
vector 323 TestFieldScenario.car[65].veinsmobility speed ETV
vector 324 TestFieldScenario.car[63].veinsmobility acceleration ETV
vector 325 TestFieldScenario.car[63].veinsmobility co2emission ETV
vector 326 TestFieldScenario.car[64].veinsmobility acceleration ETV
vector 327 TestFieldScenario.car[64].veinsmobility co2emission ETV
vector 328 TestFieldScenario.car[65].veinsmobility acceleration ETV
vector 329 TestFieldScenario.car[65].veinsmobility co2emission ETV
vector 330 TestFieldScenario.car[66].veinsmobility posx ETV
vector 331 TestFieldScenario.car[66].veinsmobility posy ETV
vector 332 TestFieldScenario.car[67].veinsmobility posx ETV
vector 333 TestFieldScenario.car[67].veinsmobility posy ETV
vector 334 TestFieldScenario.car[68].veinsmobility posx ETV
vector 335 TestFieldScenario.car[68].veinsmobility posy ETV
vector 336 TestFieldScenario.car[66].veinsmobility speed ETV
vector 337 TestFieldScenario.car[67].veinsmobility speed ETV
vector 338 TestFieldScenario.car[68].veinsmobility speed ETV
vector 339 TestFieldScenario.car[66].veinsmobility acceleration ETV
vector 340 TestFieldScenario.car[66].veinsmobility co2emission ETV
vector 341 TestFieldScenario.car[67].veinsmobility acceleration ETV
vector 342 TestFieldScenario.car[67].veinsmobility co2emission ETV
vector 343 TestFieldScenario.car[68].veinsmobility acceleration ETV
vector 344 TestFieldScenario.car[68].veinsmobility co2emission ETV
vector 345 TestFieldScenario.car[69].veinsmobility posx ETV
vector 346 TestFieldScenario.car[69].veinsmobility posy ETV
vector 347 TestFieldScenario.car[70].veinsmobility posx ETV
vector 348 TestFieldScenario.car[70].veinsmobility posy ETV
vector 349 TestFieldScenario.car[71].veinsmobility posx ETV
vector 350 TestFieldScenario.car[71].veinsmobility posy ETV
vector 351 TestFieldScenario.car[69].veinsmobility speed ETV
vector 352 TestFieldScenario.car[70].veinsmobility speed ETV
vector 353 TestFieldScenario.car[71].veinsmobility speed ETV
vector 354 TestFieldScenario.car[69].veinsmobility acceleration ETV
vector 355 TestFieldScenario.car[69].veinsmobility co2emission ETV
vector 356 TestFieldScenario.car[70].veinsmobility acceleration ETV
vector 357 TestFieldScenario.car[70].veinsmobility co2emission ETV
vector 358 TestFieldScenario.car[71].veinsmobility acceleration ETV
vector 359 TestFieldScenario.car[71].veinsmobility co2emission ETV
vector 360 TestFieldScenario.car[72].veinsmobility posx ETV
vector 361 TestFieldScenario.car[72].veinsmobility posy ETV
vector 362 TestFieldScenario.car[73].veinsmobility posx ETV
vector 363 TestFieldScenario.car[73].veinsmobility posy ETV
vector 364 TestFieldScenario.car[74].veinsmobility posx ETV
vector 365 TestFieldScenario.car[74].veinsmobility posy ETV
vector 366 TestFieldScenario.car[72].veinsmobility speed ETV
vector 367 TestFieldScenario.car[73].veinsmobility speed ETV
vector 368 TestFieldScenario.car[74].veinsmobility speed ETV
vector 369 TestFieldScenario.car[72].veinsmobility acceleration ETV
vector 370 TestFieldScenario.car[72].veinsmobility co2emission ETV
vector 371 TestFieldScenario.car[73].veinsmobility acceleration ETV
vector 372 TestFieldScenario.car[73].veinsmobility co2emission ETV
vector 373 TestFieldScenario.car[74].veinsmobility acceleration ETV
vector 374 TestFieldScenario.car[74].veinsmobility co2emission ETV
vector 375 TestFieldScenario.car[75].veinsmobility posx ETV
vector 376 TestFieldScenario.car[75].veinsmobility posy ETV
vector 377 TestFieldScenario.car[76].veinsmobility posx ETV
vector 378 TestFieldScenario.car[76].veinsmobility posy ETV
vector 379 TestFieldScenario.car[77].veinsmobility posx ETV
vector 380 TestFieldScenario.car[77].veinsmobility posy ETV
vector 381 TestFieldScenario.car[75].veinsmobility speed ETV
vector 382 TestFieldScenario.car[76].veinsmobility speed ETV
vector 383 TestFieldScenario.car[77].veinsmobility speed ETV
vector 384 TestFieldScenario.car[75].veinsmobility acceleration ETV
vector 385 TestFieldScenario.car[75].veinsmobility co2emission ETV
vector 386 TestFieldScenario.car[76].veinsmobility acceleration ETV
vector 387 TestFieldScenario.car[76].veinsmobility co2emission ETV
vector 388 TestFieldScenario.car[77].veinsmobility acceleration ETV
vector 389 TestFieldScenario.car[77].veinsmobility co2emission ETV
vector 390 TestFieldScenario.car[78].veinsmobility posx ETV
vector 391 TestFieldScenario.car[78].veinsmobility posy ETV
vector 392 TestFieldScenario.car[79].veinsmobility posx ETV
vector 393 TestFieldScenario.car[79].veinsmobility posy ETV
vector 394 TestFieldScenario.car[80].veinsmobility posx ETV
vector 395 TestFieldScenario.car[80].veinsmobility posy ETV
vector 396 TestFieldScenario.car[78].veinsmobility speed ETV
vector 397 TestFieldScenario.car[79].veinsmobility speed ETV
vector 398 TestFieldScenario.car[80].veinsmobility speed ETV
vector 399 TestFieldScenario.car[78].veinsmobility acceleration ETV
vector 400 TestFieldScenario.car[78].veinsmobility co2emission ETV
vector 401 TestFieldScenario.car[79].veinsmobility acceleration ETV
vector 402 TestFieldScenario.car[79].veinsmobility co2emission ETV
vector 403 TestFieldScenario.car[80].veinsmobility acceleration ETV
vector 404 TestFieldScenario.car[80].veinsmobility co2emission ETV
vector 405 TestFieldScenario.car[81].veinsmobility posx ETV
vector 406 TestFieldScenario.car[81].veinsmobility posy ETV
vector 407 TestFieldScenario.car[82].veinsmobility posx ETV
vector 408 TestFieldScenario.car[82].veinsmobility posy ETV
vector 409 TestFieldScenario.car[83].veinsmobility posx ETV
vector 410 TestFieldScenario.car[83].veinsmobility posy ETV
vector 411 TestFieldScenario.car[81].veinsmobility speed ETV
vector 412 TestFieldScenario.car[82].veinsmobility speed ETV
vector 413 TestFieldScenario.car[83].veinsmobility speed ETV
vector 414 TestFieldScenario.car[81].veinsmobility acceleration ETV
vector 415 TestFieldScenario.car[81].veinsmobility co2emission ETV
vector 416 TestFieldScenario.car[82].veinsmobility acceleration ETV
vector 417 TestFieldScenario.car[82].veinsmobility co2emission ETV
vector 418 TestFieldScenario.car[83].veinsmobility acceleration ETV
vector 419 TestFieldScenario.car[83].veinsmobility co2emission ETV
vector 420 TestFieldScenario.car[84].veinsmobility posx ETV
vector 421 TestFieldScenario.car[84].veinsmobility posy ETV
vector 422 TestFieldScenario.car[85].veinsmobility posx ETV
vector 423 TestFieldScenario.car[85].veinsmobility posy ETV
vector 424 TestFieldScenario.car[86].veinsmobility posx ETV
vector 425 TestFieldScenario.car[86].veinsmobility posy ETV
vector 426 TestFieldScenario.car[84].veinsmobility speed ETV
vector 427 TestFieldScenario.car[85].veinsmobility speed ETV
vector 428 TestFieldScenario.car[86].veinsmobility speed ETV
vector 429 TestFieldScenario.car[84].veinsmobility acceleration ETV
vector 430 TestFieldScenario.car[84].veinsmobility co2emission ETV
vector 431 TestFieldScenario.car[85].veinsmobility acceleration ETV
vector 432 TestFieldScenario.car[85].veinsmobility co2emission ETV
vector 433 TestFieldScenario.car[86].veinsmobility acceleration ETV
vector 434 TestFieldScenario.car[86].veinsmobility co2emission ETV
vector 435 TestFieldScenario.car[87].veinsmobility posx ETV
vector 436 TestFieldScenario.car[87].veinsmobility posy ETV
vector 437 TestFieldScenario.car[88].veinsmobility posx ETV
vector 438 TestFieldScenario.car[88].veinsmobility posy ETV
vector 439 TestFieldScenario.car[89].veinsmobility posx ETV
vector 440 TestFieldScenario.car[89].veinsmobility posy ETV
vector 441 TestFieldScenario.car[87].veinsmobility speed ETV
vector 442 TestFieldScenario.car[88].veinsmobility speed ETV
vector 443 TestFieldScenario.car[89].veinsmobility speed ETV
vector 444 TestFieldScenario.car[87].veinsmobility acceleration ETV
vector 445 TestFieldScenario.car[87].veinsmobility co2emission ETV
vector 446 TestFieldScenario.car[88].veinsmobility acceleration ETV
vector 447 TestFieldScenario.car[88].veinsmobility co2emission ETV
vector 448 TestFieldScenario.car[89].veinsmobility acceleration ETV
vector 449 TestFieldScenario.car[89].veinsmobility co2emission ETV
vector 450 TestFieldScenario.car[90].veinsmobility posx ETV
vector 451 TestFieldScenario.car[90].veinsmobility posy ETV
vector 452 TestFieldScenario.car[91].veinsmobility posx ETV
vector 453 TestFieldScenario.car[91].veinsmobility posy ETV
vector 454 TestFieldScenario.car[92].veinsmobility posx ETV
vector 455 TestFieldScenario.car[92].veinsmobility posy ETV
vector 456 TestFieldScenario.car[90].veinsmobility speed ETV
vector 457 TestFieldScenario.car[91].veinsmobility speed ETV
vector 458 TestFieldScenario.car[92].veinsmobility speed ETV
vector 459 TestFieldScenario.car[90].veinsmobility acceleration ETV
vector 460 TestFieldScenario.car[90].veinsmobility co2emission ETV
vector 461 TestFieldScenario.car[91].veinsmobility acceleration ETV
vector 462 TestFieldScenario.car[91].veinsmobility co2emission ETV
vector 463 TestFieldScenario.car[92].veinsmobility acceleration ETV
vector 464 TestFieldScenario.car[92].veinsmobility co2emission ETV
vector 465 TestFieldScenario.car[93].veinsmobility posx ETV
vector 466 TestFieldScenario.car[93].veinsmobility posy ETV
vector 467 TestFieldScenario.car[94].veinsmobility posx ETV
vector 468 TestFieldScenario.car[94].veinsmobility posy ETV
vector 469 TestFieldScenario.car[95].veinsmobility posx ETV
vector 470 TestFieldScenario.car[95].veinsmobility posy ETV
vector 471 TestFieldScenario.car[93].veinsmobility speed ETV
vector 472 TestFieldScenario.car[94].veinsmobility speed ETV
vector 473 TestFieldScenario.car[95].veinsmobility speed ETV
vector 474 TestFieldScenario.car[93].veinsmobility acceleration ETV
vector 475 TestFieldScenario.car[93].veinsmobility co2emission ETV
vector 476 TestFieldScenario.car[94].veinsmobility acceleration ETV
vector 477 TestFieldScenario.car[94].veinsmobility co2emission ETV
vector 478 TestFieldScenario.car[95].veinsmobility acceleration ETV
vector 479 TestFieldScenario.car[95].veinsmobility co2emission ETV
vector 480 TestFieldScenario.car[96].veinsmobility posx ETV
vector 481 TestFieldScenario.car[96].veinsmobility posy ETV
vector 482 TestFieldScenario.car[97].veinsmobility posx ETV
vector 483 TestFieldScenario.car[97].veinsmobility posy ETV
vector 484 TestFieldScenario.car[98].veinsmobility posx ETV
vector 485 TestFieldScenario.car[98].veinsmobility posy ETV
vector 486 TestFieldScenario.car[96].veinsmobility speed ETV
vector 487 TestFieldScenario.car[97].veinsmobility speed ETV
vector 488 TestFieldScenario.car[98].veinsmobility speed ETV
vector 489 TestFieldScenario.car[96].veinsmobility acceleration ETV
vector 490 TestFieldScenario.car[96].veinsmobility co2emission ETV
vector 491 TestFieldScenario.car[97].veinsmobility acceleration ETV
vector 492 TestFieldScenario.car[97].veinsmobility co2emission ETV
vector 493 TestFieldScenario.car[98].veinsmobility acceleration ETV
vector 494 TestFieldScenario.car[98].veinsmobility co2emission ETV
vector 495 TestFieldScenario.car[99].veinsmobility posx ETV
vector 496 TestFieldScenario.car[99].veinsmobility posy ETV
vector 497 TestFieldScenario.car[100].veinsmobility posx ETV
vector 498 TestFieldScenario.car[100].veinsmobility posy ETV
vector 499 TestFieldScenario.car[101].veinsmobility posx ETV
vector 500 TestFieldScenario.car[101].veinsmobility posy ETV
vector 501 TestFieldScenario.car[99].veinsmobility speed ETV
vector 502 TestFieldScenario.car[100].veinsmobility speed ETV
vector 503 TestFieldScenario.car[101].veinsmobility speed ETV
vector 504 TestFieldScenario.car[99].veinsmobility acceleration ETV
vector 505 TestFieldScenario.car[99].veinsmobility co2emission ETV
vector 506 TestFieldScenario.car[100].veinsmobility acceleration ETV
vector 507 TestFieldScenario.car[100].veinsmobility co2emission ETV
vector 508 TestFieldScenario.car[101].veinsmobility acceleration ETV
vector 509 TestFieldScenario.car[101].veinsmobility co2emission ETV
vector 510 TestFieldScenario.car[102].veinsmobility posx ETV
vector 511 TestFieldScenario.car[102].veinsmobility posy ETV
vector 512 TestFieldScenario.car[103].veinsmobility posx ETV
vector 513 TestFieldScenario.car[103].veinsmobility posy ETV
vector 514 TestFieldScenario.car[104].veinsmobility posx ETV
vector 515 TestFieldScenario.car[104].veinsmobility posy ETV
vector 516 TestFieldScenario.car[102].veinsmobility speed ETV
vector 517 TestFieldScenario.car[103].veinsmobility speed ETV
vector 518 TestFieldScenario.car[104].veinsmobility speed ETV
vector 519 TestFieldScenario.car[102].veinsmobility acceleration ETV
vector 520 TestFieldScenario.car[102].veinsmobility co2emission ETV
vector 521 TestFieldScenario.car[103].veinsmobility acceleration ETV
vector 522 TestFieldScenario.car[103].veinsmobility co2emission ETV
vector 523 TestFieldScenario.car[104].veinsmobility acceleration ETV
vector 524 TestFieldScenario.car[104].veinsmobility co2emission ETV
vector 525 TestFieldScenario.car[105].veinsmobility posx ETV
vector 526 TestFieldScenario.car[105].veinsmobility posy ETV
vector 527 TestFieldScenario.car[106].veinsmobility posx ETV
vector 528 TestFieldScenario.car[106].veinsmobility posy ETV
vector 529 TestFieldScenario.car[107].veinsmobility posx ETV
vector 530 TestFieldScenario.car[107].veinsmobility posy ETV
vector 531 TestFieldScenario.car[105].veinsmobility speed ETV
vector 532 TestFieldScenario.car[106].veinsmobility speed ETV
vector 533 TestFieldScenario.car[107].veinsmobility speed ETV
vector 534 TestFieldScenario.car[105].veinsmobility acceleration ETV
vector 535 TestFieldScenario.car[105].veinsmobility co2emission ETV
vector 536 TestFieldScenario.car[106].veinsmobility acceleration ETV
vector 537 TestFieldScenario.car[106].veinsmobility co2emission ETV
vector 538 TestFieldScenario.car[107].veinsmobility acceleration ETV
vector 539 TestFieldScenario.car[107].veinsmobility co2emission ETV
vector 540 TestFieldScenario.car[108].veinsmobility posx ETV
vector 541 TestFieldScenario.car[108].veinsmobility posy ETV
vector 542 TestFieldScenario.car[109].veinsmobility posx ETV
vector 543 TestFieldScenario.car[109].veinsmobility posy ETV
vector 544 TestFieldScenario.car[110].veinsmobility posx ETV
vector 545 TestFieldScenario.car[110].veinsmobility posy ETV
vector 546 TestFieldScenario.car[108].veinsmobility speed ETV
vector 547 TestFieldScenario.car[109].veinsmobility speed ETV
vector 548 TestFieldScenario.car[110].veinsmobility speed ETV
vector 549 TestFieldScenario.car[108].veinsmobility acceleration ETV
vector 550 TestFieldScenario.car[108].veinsmobility co2emission ETV
vector 551 TestFieldScenario.car[109].veinsmobility acceleration ETV
vector 552 TestFieldScenario.car[109].veinsmobility co2emission ETV
vector 553 TestFieldScenario.car[110].veinsmobility acceleration ETV
vector 554 TestFieldScenario.car[110].veinsmobility co2emission ETV
vector 555 TestFieldScenario.car[111].veinsmobility posx ETV
vector 556 TestFieldScenario.car[111].veinsmobility posy ETV
vector 557 TestFieldScenario.car[112].veinsmobility posx ETV
vector 558 TestFieldScenario.car[112].veinsmobility posy ETV
vector 559 TestFieldScenario.car[113].veinsmobility posx ETV
vector 560 TestFieldScenario.car[113].veinsmobility posy ETV
vector 561 TestFieldScenario.car[111].veinsmobility speed ETV
vector 562 TestFieldScenario.car[112].veinsmobility speed ETV
vector 563 TestFieldScenario.car[113].veinsmobility speed ETV
vector 564 TestFieldScenario.car[111].veinsmobility acceleration ETV
vector 565 TestFieldScenario.car[111].veinsmobility co2emission ETV
vector 566 TestFieldScenario.car[112].veinsmobility acceleration ETV
vector 567 TestFieldScenario.car[112].veinsmobility co2emission ETV
vector 568 TestFieldScenario.car[113].veinsmobility acceleration ETV
vector 569 TestFieldScenario.car[113].veinsmobility co2emission ETV
vector 570 TestFieldScenario.car[114].veinsmobility posx ETV
vector 571 TestFieldScenario.car[114].veinsmobility posy ETV
vector 572 TestFieldScenario.car[115].veinsmobility posx ETV
vector 573 TestFieldScenario.car[115].veinsmobility posy ETV
vector 574 TestFieldScenario.car[116].veinsmobility posx ETV
vector 575 TestFieldScenario.car[116].veinsmobility posy ETV
vector 576 TestFieldScenario.car[114].veinsmobility speed ETV
vector 577 TestFieldScenario.car[115].veinsmobility speed ETV
vector 578 TestFieldScenario.car[116].veinsmobility speed ETV
vector 579 TestFieldScenario.car[114].veinsmobility acceleration ETV
vector 580 TestFieldScenario.car[114].veinsmobility co2emission ETV
vector 581 TestFieldScenario.car[115].veinsmobility acceleration ETV
vector 582 TestFieldScenario.car[115].veinsmobility co2emission ETV
vector 583 TestFieldScenario.car[116].veinsmobility acceleration ETV
vector 584 TestFieldScenario.car[116].veinsmobility co2emission ETV
vector 585 TestFieldScenario.car[117].veinsmobility posx ETV
vector 586 TestFieldScenario.car[117].veinsmobility posy ETV
vector 587 TestFieldScenario.car[118].veinsmobility posx ETV
vector 588 TestFieldScenario.car[118].veinsmobility posy ETV
vector 589 TestFieldScenario.car[119].veinsmobility posx ETV
vector 590 TestFieldScenario.car[119].veinsmobility posy ETV
vector 591 TestFieldScenario.car[117].veinsmobility speed ETV
vector 592 TestFieldScenario.car[118].veinsmobility speed ETV
vector 593 TestFieldScenario.car[119].veinsmobility speed ETV
vector 594 TestFieldScenario.car[117].veinsmobility acceleration ETV
vector 595 TestFieldScenario.car[117].veinsmobility co2emission ETV
vector 596 TestFieldScenario.car[118].veinsmobility acceleration ETV
vector 597 TestFieldScenario.car[118].veinsmobility co2emission ETV
vector 598 TestFieldScenario.car[119].veinsmobility acceleration ETV
vector 599 TestFieldScenario.car[119].veinsmobility co2emission ETV
vector 600 TestFieldScenario.car[120].veinsmobility posx ETV
vector 601 TestFieldScenario.car[120].veinsmobility posy ETV
vector 602 TestFieldScenario.car[121].veinsmobility posx ETV
vector 603 TestFieldScenario.car[121].veinsmobility posy ETV
vector 604 TestFieldScenario.car[122].veinsmobility posx ETV
vector 605 TestFieldScenario.car[122].veinsmobility posy ETV
vector 606 TestFieldScenario.car[120].veinsmobility speed ETV
vector 607 TestFieldScenario.car[121].veinsmobility speed ETV
vector 608 TestFieldScenario.car[122].veinsmobility speed ETV
vector 609 TestFieldScenario.car[120].veinsmobility acceleration ETV
vector 610 TestFieldScenario.car[120].veinsmobility co2emission ETV
vector 611 TestFieldScenario.car[121].veinsmobility acceleration ETV
vector 612 TestFieldScenario.car[121].veinsmobility co2emission ETV
vector 613 TestFieldScenario.car[122].veinsmobility acceleration ETV
vector 614 TestFieldScenario.car[122].veinsmobility co2emission ETV
vector 615 TestFieldScenario.car[123].veinsmobility posx ETV
vector 616 TestFieldScenario.car[123].veinsmobility posy ETV
vector 617 TestFieldScenario.car[124].veinsmobility posx ETV
vector 618 TestFieldScenario.car[124].veinsmobility posy ETV
vector 619 TestFieldScenario.car[125].veinsmobility posx ETV
vector 620 TestFieldScenario.car[125].veinsmobility posy ETV
vector 621 TestFieldScenario.car[123].veinsmobility speed ETV
vector 622 TestFieldScenario.car[124].veinsmobility speed ETV
vector 623 TestFieldScenario.car[125].veinsmobility speed ETV
vector 624 TestFieldScenario.car[123].veinsmobility acceleration ETV
vector 625 TestFieldScenario.car[123].veinsmobility co2emission ETV
vector 626 TestFieldScenario.car[124].veinsmobility acceleration ETV
vector 627 TestFieldScenario.car[124].veinsmobility co2emission ETV
vector 628 TestFieldScenario.car[125].veinsmobility acceleration ETV
vector 629 TestFieldScenario.car[125].veinsmobility co2emission ETV
vector 630 TestFieldScenario.car[126].veinsmobility posx ETV
vector 631 TestFieldScenario.car[126].veinsmobility posy ETV
vector 632 TestFieldScenario.car[127].veinsmobility posx ETV
vector 633 TestFieldScenario.car[127].veinsmobility posy ETV
vector 634 TestFieldScenario.car[128].veinsmobility posx ETV
vector 635 TestFieldScenario.car[128].veinsmobility posy ETV
vector 636 TestFieldScenario.car[126].veinsmobility speed ETV
vector 637 TestFieldScenario.car[127].veinsmobility speed ETV
vector 638 TestFieldScenario.car[126].veinsmobility acceleration ETV
vector 639 TestFieldScenario.car[126].veinsmobility co2emission ETV
vector 640 TestFieldScenario.car[127].veinsmobility acceleration ETV
vector 641 TestFieldScenario.car[127].veinsmobility co2emission ETV
vector 642 TestFieldScenario.car[128].veinsmobility speed ETV
vector 643 TestFieldScenario.car[129].veinsmobility posx ETV
vector 644 TestFieldScenario.car[129].veinsmobility posy ETV
vector 645 TestFieldScenario.car[130].veinsmobility posx ETV
vector 646 TestFieldScenario.car[130].veinsmobility posy ETV
vector 647 TestFieldScenario.car[128].veinsmobility acceleration ETV
vector 648 TestFieldScenario.car[128].veinsmobility co2emission ETV
vector 649 TestFieldScenario.car[131].veinsmobility posx ETV
vector 650 TestFieldScenario.car[131].veinsmobility posy ETV
vector 651 TestFieldScenario.car[129].veinsmobility speed ETV
vector 652 TestFieldScenario.car[130].veinsmobility speed ETV
vector 653 TestFieldScenario.car[129].veinsmobility acceleration ETV
vector 654 TestFieldScenario.car[129].veinsmobility co2emission ETV
vector 655 TestFieldScenario.car[130].veinsmobility acceleration ETV
vector 656 TestFieldScenario.car[130].veinsmobility co2emission ETV
vector 657 TestFieldScenario.car[131].veinsmobility speed ETV
vector 658 TestFieldScenario.car[132].veinsmobility posx ETV
vector 659 TestFieldScenario.car[132].veinsmobility posy ETV
vector 660 TestFieldScenario.car[133].veinsmobility posx ETV
vector 661 TestFieldScenario.car[133].veinsmobility posy ETV
vector 662 TestFieldScenario.car[131].veinsmobility acceleration ETV
vector 663 TestFieldScenario.car[131].veinsmobility co2emission ETV
vector 664 TestFieldScenario.car[134].veinsmobility posx ETV
vector 665 TestFieldScenario.car[134].veinsmobility posy ETV
vector 666 TestFieldScenario.car[132].veinsmobility speed ETV
vector 667 TestFieldScenario.car[133].veinsmobility speed ETV
vector 668 TestFieldScenario.car[132].veinsmobility acceleration ETV
vector 669 TestFieldScenario.car[132].veinsmobility co2emission ETV
vector 670 TestFieldScenario.car[133].veinsmobility acceleration ETV
vector 671 TestFieldScenario.car[133].veinsmobility co2emission ETV
vector 672 TestFieldScenario.car[134].veinsmobility speed ETV
vector 673 TestFieldScenario.car[135].veinsmobility posx ETV
vector 674 TestFieldScenario.car[135].veinsmobility posy ETV
vector 675 TestFieldScenario.car[136].veinsmobility posx ETV
vector 676 TestFieldScenario.car[136].veinsmobility posy ETV
vector 677 TestFieldScenario.car[134].veinsmobility acceleration ETV
vector 678 TestFieldScenario.car[134].veinsmobility co2emission ETV
vector 679 TestFieldScenario.car[137].veinsmobility posx ETV
vector 680 TestFieldScenario.car[137].veinsmobility posy ETV
vector 681 TestFieldScenario.car[135].veinsmobility speed ETV
vector 682 TestFieldScenario.car[136].veinsmobility speed ETV
vector 683 TestFieldScenario.car[135].veinsmobility acceleration ETV
vector 684 TestFieldScenario.car[135].veinsmobility co2emission ETV
vector 685 TestFieldScenario.car[136].veinsmobility acceleration ETV
vector 686 TestFieldScenario.car[136].veinsmobility co2emission ETV
vector 687 TestFieldScenario.car[137].veinsmobility speed ETV
vector 688 TestFieldScenario.car[138].veinsmobility posx ETV
vector 689 TestFieldScenario.car[138].veinsmobility posy ETV
vector 690 TestFieldScenario.car[139].veinsmobility posx ETV
vector 691 TestFieldScenario.car[139].veinsmobility posy ETV
vector 692 TestFieldScenario.car[137].veinsmobility acceleration ETV
vector 693 TestFieldScenario.car[137].veinsmobility co2emission ETV
vector 694 TestFieldScenario.car[140].veinsmobility posx ETV
vector 695 TestFieldScenario.car[140].veinsmobility posy ETV
vector 696 TestFieldScenario.car[138].veinsmobility speed ETV
vector 697 TestFieldScenario.car[139].veinsmobility speed ETV
vector 698 TestFieldScenario.car[138].veinsmobility acceleration ETV
vector 699 TestFieldScenario.car[138].veinsmobility co2emission ETV
vector 700 TestFieldScenario.car[139].veinsmobility acceleration ETV
vector 701 TestFieldScenario.car[139].veinsmobility co2emission ETV
vector 702 TestFieldScenario.car[140].veinsmobility speed ETV
vector 703 TestFieldScenario.car[141].veinsmobility posx ETV
vector 704 TestFieldScenario.car[141].veinsmobility posy ETV
vector 705 TestFieldScenario.car[142].veinsmobility posx ETV
vector 706 TestFieldScenario.car[142].veinsmobility posy ETV
vector 707 TestFieldScenario.car[140].veinsmobility acceleration ETV
vector 708 TestFieldScenario.car[140].veinsmobility co2emission ETV
vector 709 TestFieldScenario.car[143].veinsmobility posx ETV
vector 710 TestFieldScenario.car[143].veinsmobility posy ETV
vector 711 TestFieldScenario.car[141].veinsmobility speed ETV
vector 712 TestFieldScenario.car[142].veinsmobility speed ETV
vector 713 TestFieldScenario.car[141].veinsmobility acceleration ETV
vector 714 TestFieldScenario.car[141].veinsmobility co2emission ETV
vector 715 TestFieldScenario.car[142].veinsmobility acceleration ETV
vector 716 TestFieldScenario.car[142].veinsmobility co2emission ETV
vector 717 TestFieldScenario.car[143].veinsmobility speed ETV
vector 718 TestFieldScenario.car[144].veinsmobility posx ETV
vector 719 TestFieldScenario.car[144].veinsmobility posy ETV
vector 720 TestFieldScenario.car[145].veinsmobility posx ETV
vector 721 TestFieldScenario.car[145].veinsmobility posy ETV
vector 722 TestFieldScenario.car[143].veinsmobility acceleration ETV
vector 723 TestFieldScenario.car[143].veinsmobility co2emission ETV
vector 724 TestFieldScenario.car[146].veinsmobility posx ETV
vector 725 TestFieldScenario.car[146].veinsmobility posy ETV
vector 726 TestFieldScenario.car[144].veinsmobility speed ETV
vector 727 TestFieldScenario.car[145].veinsmobility speed ETV
vector 728 TestFieldScenario.car[144].veinsmobility acceleration ETV
vector 729 TestFieldScenario.car[144].veinsmobility co2emission ETV
vector 730 TestFieldScenario.car[145].veinsmobility acceleration ETV
vector 731 TestFieldScenario.car[145].veinsmobility co2emission ETV
vector 732 TestFieldScenario.car[146].veinsmobility speed ETV
vector 733 TestFieldScenario.car[147].veinsmobility posx ETV
vector 734 TestFieldScenario.car[147].veinsmobility posy ETV
vector 735 TestFieldScenario.car[148].veinsmobility posx ETV
vector 736 TestFieldScenario.car[148].veinsmobility posy ETV
vector 737 TestFieldScenario.car[146].veinsmobility acceleration ETV
vector 738 TestFieldScenario.car[146].veinsmobility co2emission ETV
vector 739 TestFieldScenario.car[149].veinsmobility posx ETV
vector 740 TestFieldScenario.car[149].veinsmobility posy ETV
vector 741 TestFieldScenario.car[147].veinsmobility speed ETV
vector 742 TestFieldScenario.car[148].veinsmobility speed ETV
vector 743 TestFieldScenario.car[147].veinsmobility acceleration ETV
vector 744 TestFieldScenario.car[147].veinsmobility co2emission ETV
vector 745 TestFieldScenario.car[148].veinsmobility acceleration ETV
vector 746 TestFieldScenario.car[148].veinsmobility co2emission ETV
vector 747 TestFieldScenario.car[149].veinsmobility speed ETV
vector 748 TestFieldScenario.car[150].veinsmobility posx ETV
vector 749 TestFieldScenario.car[150].veinsmobility posy ETV
vector 750 TestFieldScenario.car[151].veinsmobility posx ETV
vector 751 TestFieldScenario.car[151].veinsmobility posy ETV
vector 752 TestFieldScenario.car[149].veinsmobility acceleration ETV
vector 753 TestFieldScenario.car[149].veinsmobility co2emission ETV
vector 754 TestFieldScenario.car[152].veinsmobility posx ETV
vector 755 TestFieldScenario.car[152].veinsmobility posy ETV
vector 756 TestFieldScenario.car[150].veinsmobility speed ETV
vector 757 TestFieldScenario.car[151].veinsmobility speed ETV
vector 758 TestFieldScenario.car[150].veinsmobility acceleration ETV
vector 759 TestFieldScenario.car[150].veinsmobility co2emission ETV
vector 760 TestFieldScenario.car[151].veinsmobility acceleration ETV
vector 761 TestFieldScenario.car[151].veinsmobility co2emission ETV
vector 762 TestFieldScenario.car[152].veinsmobility speed ETV
vector 763 TestFieldScenario.car[153].veinsmobility posx ETV
vector 764 TestFieldScenario.car[153].veinsmobility posy ETV
vector 765 TestFieldScenario.car[154].veinsmobility posx ETV
vector 766 TestFieldScenario.car[154].veinsmobility posy ETV
vector 767 TestFieldScenario.car[152].veinsmobility acceleration ETV
vector 768 TestFieldScenario.car[152].veinsmobility co2emission ETV
vector 769 TestFieldScenario.car[155].veinsmobility posx ETV
vector 770 TestFieldScenario.car[155].veinsmobility posy ETV
vector 771 TestFieldScenario.car[153].veinsmobility speed ETV
vector 772 TestFieldScenario.car[154].veinsmobility speed ETV
vector 773 TestFieldScenario.car[153].veinsmobility acceleration ETV
vector 774 TestFieldScenario.car[153].veinsmobility co2emission ETV
vector 775 TestFieldScenario.car[154].veinsmobility acceleration ETV
vector 776 TestFieldScenario.car[154].veinsmobility co2emission ETV
vector 777 TestFieldScenario.car[155].veinsmobility speed ETV
29	54020 4010 7 157 6 156 151 -2.4311267084042 21.255565488517 1142.8432247269 12858.963953778
28	58030 4233 7 157 6 156 151 -2.1962702463791 2.4745098020183 33.544771782508 117.55001062391
23	62263 4040 6 157 5 156 152 1.8854387812782 35.825534819918 4993.5635935115 170090.73928249
20	66303 2399 5 157 4 156 153 26.6 29.8 4204.2 115836.84
19	68702 4036 5 157 4 156 153 30.1 4988.2333829477 361959.88040785 1206562942.6082
vector 778 TestFieldScenario.car[156].veinsmobility posx ETV
vector 779 TestFieldScenario.car[156].veinsmobility posy ETV
vector 780 TestFieldScenario.car[157].veinsmobility posx ETV
vector 781 TestFieldScenario.car[157].veinsmobility posy ETV
vector 782 TestFieldScenario.car[155].veinsmobility acceleration ETV
vector 783 TestFieldScenario.car[155].veinsmobility co2emission ETV
vector 784 TestFieldScenario.car[156].veinsmobility speed ETV
vector 785 TestFieldScenario.car[157].veinsmobility speed ETV
vector 786 TestFieldScenario.car[158].veinsmobility posx ETV
vector 787 TestFieldScenario.car[158].veinsmobility posy ETV
vector 788 TestFieldScenario.car[156].veinsmobility acceleration ETV
vector 789 TestFieldScenario.car[156].veinsmobility co2emission ETV
vector 790 TestFieldScenario.car[157].veinsmobility acceleration ETV
vector 791 TestFieldScenario.car[157].veinsmobility co2emission ETV
vector 792 TestFieldScenario.car[159].veinsmobility posx ETV
vector 793 TestFieldScenario.car[159].veinsmobility posy ETV
vector 794 TestFieldScenario.car[160].veinsmobility posx ETV
vector 795 TestFieldScenario.car[160].veinsmobility posy ETV
vector 796 TestFieldScenario.car[158].veinsmobility speed ETV
vector 797 TestFieldScenario.car[158].veinsmobility acceleration ETV
vector 798 TestFieldScenario.car[158].veinsmobility co2emission ETV
vector 799 TestFieldScenario.car[159].veinsmobility speed ETV
vector 800 TestFieldScenario.car[160].veinsmobility speed ETV
vector 801 TestFieldScenario.car[161].veinsmobility posx ETV
vector 802 TestFieldScenario.car[161].veinsmobility posy ETV
vector 803 TestFieldScenario.car[159].veinsmobility acceleration ETV
vector 804 TestFieldScenario.car[159].veinsmobility co2emission ETV
vector 805 TestFieldScenario.car[160].veinsmobility acceleration ETV
vector 806 TestFieldScenario.car[160].veinsmobility co2emission ETV
vector 807 TestFieldScenario.car[162].veinsmobility posx ETV
vector 808 TestFieldScenario.car[162].veinsmobility posy ETV
vector 809 TestFieldScenario.car[163].veinsmobility posx ETV
vector 810 TestFieldScenario.car[163].veinsmobility posy ETV
vector 811 TestFieldScenario.car[161].veinsmobility speed ETV
vector 812 TestFieldScenario.car[161].veinsmobility acceleration ETV
vector 813 TestFieldScenario.car[161].veinsmobility co2emission ETV
vector 814 TestFieldScenario.car[162].veinsmobility speed ETV
vector 815 TestFieldScenario.car[163].veinsmobility speed ETV
vector 816 TestFieldScenario.car[164].veinsmobility posx ETV
vector 817 TestFieldScenario.car[164].veinsmobility posy ETV
vector 818 TestFieldScenario.car[162].veinsmobility acceleration ETV
vector 819 TestFieldScenario.car[162].veinsmobility co2emission ETV
vector 820 TestFieldScenario.car[163].veinsmobility acceleration ETV
vector 821 TestFieldScenario.car[163].veinsmobility co2emission ETV
vector 822 TestFieldScenario.car[165].veinsmobility posx ETV
vector 823 TestFieldScenario.car[165].veinsmobility posy ETV
vector 824 TestFieldScenario.car[164].veinsmobility speed ETV
vector 825 TestFieldScenario.car[166].veinsmobility posx ETV
vector 826 TestFieldScenario.car[166].veinsmobility posy ETV
vector 827 TestFieldScenario.car[164].veinsmobility acceleration ETV
vector 828 TestFieldScenario.car[164].veinsmobility co2emission ETV
vector 829 TestFieldScenario.car[165].veinsmobility speed ETV
vector 830 TestFieldScenario.car[167].veinsmobility posx ETV
vector 831 TestFieldScenario.car[167].veinsmobility posy ETV
vector 832 TestFieldScenario.car[165].veinsmobility acceleration ETV
vector 833 TestFieldScenario.car[165].veinsmobility co2emission ETV
vector 834 TestFieldScenario.car[166].veinsmobility speed ETV
vector 835 TestFieldScenario.car[168].veinsmobility posx ETV
vector 836 TestFieldScenario.car[168].veinsmobility posy ETV
vector 837 TestFieldScenario.car[166].veinsmobility acceleration ETV
vector 838 TestFieldScenario.car[166].veinsmobility co2emission ETV
vector 839 TestFieldScenario.car[167].veinsmobility speed ETV
vector 840 TestFieldScenario.car[169].veinsmobility posx ETV
vector 841 TestFieldScenario.car[169].veinsmobility posy ETV
vector 842 TestFieldScenario.car[167].veinsmobility acceleration ETV
vector 843 TestFieldScenario.car[167].veinsmobility co2emission ETV
vector 844 TestFieldScenario.car[168].veinsmobility speed ETV
12	77100 4434 4 171 3 170 168 -1.6514094223309 23.021790593412 1035.7704476084 10247.740923361
11	81534 4706 4 171 3 170 168 -4.5 2.5073980555186 28.607179538032 134.27699619686
7	86240 4339 3 171 2 170 169 2.0578714020317 32.488811633311 4977.1781388931 151467.14362531
3	90579 2506 2 171 1 170 170 26.6 29.8 4931.6 143386.64
2	93085 4340 2 171 1 170 170 30.1 4976.6130879531 404100.27436586 1347225066.0208
14	97425 4446 4 171 3 170 168 -1.6084566463647 17.891765855404 1002.5546122086 8973.0941608093
13	101871 4721 4 171 3 170 168 -1.2353548778221 2.5662959037116 28.885095779516 101.75618707157
8	106592 4327 3 171 2 170 169 2.0332066265866 31.904491393955 4984.825137782 151112.14805864
5	110919 2506 2 171 1 170 170 26.6 29.8 4714 131114
4	113425 4340 2 171 1 170 170 30.1 4984.0068353759 403882.33742924 1339671059.3018
vector 845 TestFieldScenario.car[170].veinsmobility posx ETV
vector 846 TestFieldScenario.car[170].veinsmobility posy ETV
vector 847 TestFieldScenario.car[168].veinsmobility acceleration ETV
vector 848 TestFieldScenario.car[168].veinsmobility co2emission ETV
vector 849 TestFieldScenario.car[169].veinsmobility speed ETV
10	118091 4447 4 172 3 171 169 -1.6080896921485 19.697829883954 1017.5070572776 9692.9275805709
9	122538 4588 4 172 3 171 169 -1.6080817756299 2.5262731315568 29.52543103362 109.6617765865
6	127126 4353 3 172 2 171 170 1.8865424470045 32.63112008731 4973.7045072107 150597.33905517
1	131479 2470 2 172 1 171 171 26.6 33 5115 153470.2
0	133949 4371 2 172 1 171 171 30.1 4972.3925337301 401278.31040752 1330103583.7392
vector 850 TestFieldScenario.car[171].veinsmobility posx ETV
vector 851 TestFieldScenario.car[171].veinsmobility posy ETV
vector 852 TestFieldScenario.car[169].veinsmobility acceleration ETV
vector 853 TestFieldScenario.car[169].veinsmobility co2emission ETV
vector 854 TestFieldScenario.car[170].veinsmobility speed ETV
vector 855 TestFieldScenario.car[172].veinsmobility posx ETV
vector 856 TestFieldScenario.car[172].veinsmobility posy ETV
vector 857 TestFieldScenario.car[170].veinsmobility acceleration ETV
vector 858 TestFieldScenario.car[170].veinsmobility co2emission ETV
vector 859 TestFieldScenario.car[171].veinsmobility speed ETV
44	138972 4266 10 174 9 173 165 -1.912910426797 20.447868763035 1089.8894269847 11248.683963425
43	143238 4634 10 174 9 173 165 -1.6480336343809 2.5151275452692 29.193196056548 135.97563257313
38	147872 4441 9 174 8 173 166 2.3992453218205 32.672987285564 4993.70378096 154570.3767407
35	152313 2649 8 174 7 173 167 26.6 29.8 4458.2 119064.92
34	154962 4442 8 174 7 173 167 30.1 4992.2113395816 399957.75579196 1331858298.7941
57	159404 4166 13 174 12 173 162 -1.5726639853783 31.217532336792 1236.7195164577 16491.646303959
56	163570 4527 13 174 12 173 162 -4.5 2.5646369240014 35.633449598455 217.715416065
52	168097 4371 12 174 11 173 163 2.1927444331115 39.267721647418 4970.6567614506 159234.98248304
48	172468 2609 11 174 10 173 164 26.6 29.8 4407.2 118566.56
47	175077 4363 11 174 10 173 164 30.1 4962.9305674191 369368.3101169 1210333342.4122
vector 860 TestFieldScenario.car[173].veinsmobility posx ETV
vector 861 TestFieldScenario.car[173].veinsmobility posy ETV
vector 862 TestFieldScenario.car[171].veinsmobility acceleration ETV
vector 863 TestFieldScenario.car[171].veinsmobility co2emission ETV
vector 864 TestFieldScenario.car[172].veinsmobility speed ETV
vector 865 TestFieldScenario.car[174].veinsmobility posx ETV
vector 866 TestFieldScenario.car[174].veinsmobility posy ETV
vector 867 TestFieldScenario.car[172].veinsmobility acceleration ETV
vector 868 TestFieldScenario.car[172].veinsmobility co2emission ETV
vector 869 TestFieldScenario.car[173].veinsmobility speed ETV
27	180092 4473 7 176 6 175 170 -1.3721852311497 18.89060120213 990.3570584916 8433.3652483475
26	184565 4810 7 176 6 175 170 -1.218348788796 2.5643961252412 26.705236795154 97.532977824334
22	189375 4565 6 176 5 175 171 2.5998513045954 31.47169779101 4994.5334685084 149442.26125042
18	193940 2722 5 176 4 175 172 26.6 29.8 4818.4 135416.8
17	196662 4575 5 176 4 175 172 30.1 4995.3283804086 415380.64928434 1391731466.7216
55	201237 4297 13 176 12 175 164 -2.6522921994836 26.879216207441 1145.577729291 13801.112534132
54	205534 4612 13 176 12 175 164 -3.3738967454106 2.4912900930969 33.28542431495 179.22709644466
51	210146 4428 12 176 11 175 165 1.5441806555958 34.862364535335 4986.2713599449 156687.00929852
46	214574 2617 11 176 10 175 166 26.6 33 4546.8 125120.88
45	217191 4437 11 176 10 175 166 30.1 4981.5417549744 382230.47635509 1262268579.3085
vector 870 TestFieldScenario.car[175].veinsmobility posx ETV
vector 871 TestFieldScenario.car[175].veinsmobility posy ETV
vector 872 TestFieldScenario.car[173].veinsmobility acceleration ETV
vector 873 TestFieldScenario.car[173].veinsmobility co2emission ETV
vector 874 TestFieldScenario.car[174].veinsmobility speed ETV
vector 875 TestFieldScenario.car[176].veinsmobility posx ETV
vector 876 TestFieldScenario.car[176].veinsmobility posy ETV
vector 877 TestFieldScenario.car[174].veinsmobility acceleration ETV
vector 878 TestFieldScenario.car[174].veinsmobility co2emission ETV
vector 879 TestFieldScenario.car[175].veinsmobility speed ETV
vector 880 TestFieldScenario.car[177].veinsmobility posx ETV
vector 881 TestFieldScenario.car[177].veinsmobility posy ETV
vector 882 TestFieldScenario.car[175].veinsmobility acceleration ETV
vector 883 TestFieldScenario.car[175].veinsmobility co2emission ETV
vector 884 TestFieldScenario.car[176].veinsmobility speed ETV
vector 885 TestFieldScenario.car[178].veinsmobility posx ETV
vector 886 TestFieldScenario.car[178].veinsmobility posy ETV
vector 887 TestFieldScenario.car[176].veinsmobility acceleration ETV
vector 888 TestFieldScenario.car[176].veinsmobility co2emission ETV
vector 889 TestFieldScenario.car[177].veinsmobility speed ETV
vector 890 TestFieldScenario.car[179].veinsmobility posx ETV
vector 891 TestFieldScenario.car[179].veinsmobility posy ETV
vector 892 TestFieldScenario.car[177].veinsmobility acceleration ETV
vector 893 TestFieldScenario.car[177].veinsmobility co2emission ETV
vector 894 TestFieldScenario.car[178].veinsmobility speed ETV
104	223258 4282 22 181 21 180 160 -1.5894169951651 25.506929015784 1231.1346473651 15981.967596333
103	227540 4655 22 181 21 180 160 -3.3462236082674 2.4932766029611 34.239450684785 213.03808645946
98	232195 4329 21 181 20 180 161 2.3377338049468 36.661030209357 4972.0497794454 159153.54483439
95	236524 2593 20 181 19 180 162 26.6 26.6 4309.2 114624.72
94	239117 4338 20 181 19 180 162 30.1 4965.5725949556 374058.91015057 1211612666.9702
vector 895 TestFieldScenario.car[180].veinsmobility posx ETV
vector 896 TestFieldScenario.car[180].veinsmobility posy ETV
vector 897 TestFieldScenario.car[178].veinsmobility acceleration ETV
vector 898 TestFieldScenario.car[178].veinsmobility co2emission ETV
vector 899 TestFieldScenario.car[179].veinsmobility speed ETV
vector 900 TestFieldScenario.car[181].veinsmobility posx ETV
vector 901 TestFieldScenario.car[181].veinsmobility posy ETV
vector 902 TestFieldScenario.car[179].veinsmobility acceleration ETV
vector 903 TestFieldScenario.car[179].veinsmobility co2emission ETV
vector 904 TestFieldScenario.car[180].veinsmobility speed ETV
vector 905 TestFieldScenario.car[182].veinsmobility posx ETV
vector 906 TestFieldScenario.car[182].veinsmobility posy ETV
vector 907 TestFieldScenario.car[180].veinsmobility acceleration ETV
vector 908 TestFieldScenario.car[180].veinsmobility co2emission ETV
vector 909 TestFieldScenario.car[181].veinsmobility speed ETV
vector 910 TestFieldScenario.car[183].veinsmobility posx ETV
vector 911 TestFieldScenario.car[183].veinsmobility posy ETV
vector 912 TestFieldScenario.car[181].veinsmobility acceleration ETV
vector 913 TestFieldScenario.car[181].veinsmobility co2emission ETV
vector 914 TestFieldScenario.car[182].veinsmobility speed ETV
102	244759 4382 22 185 21 184 164 -1.9139600340299 23.288930405585 1223.2722548314 15774.934206564
101	249141 4768 22 185 21 184 164 -4.1779911614533 2.5962685778039 31.217683817194 238.25858924955
97	253909 4440 21 185 20 184 165 1.6248123938916 34.330405775283 4964.9810545895 155372.26732183
93	258349 2661 20 185 19 184 166 26.6 29.8 4489.2 121606
92	261010 4449 20 185 19 184 166 30.1 4962.2385583784 384965.52247732 1259850898.4468
vector 915 TestFieldScenario.car[184].veinsmobility posx ETV
vector 916 TestFieldScenario.car[184].veinsmobility posy ETV
vector 917 TestFieldScenario.car[182].veinsmobility acceleration ETV
vector 918 TestFieldScenario.car[182].veinsmobility co2emission ETV
vector 919 TestFieldScenario.car[183].veinsmobility speed ETV
vector 920 TestFieldScenario.car[185].veinsmobility posx ETV
vector 921 TestFieldScenario.car[185].veinsmobility posy ETV
vector 922 TestFieldScenario.car[183].veinsmobility acceleration ETV
vector 923 TestFieldScenario.car[183].veinsmobility co2emission ETV
vector 924 TestFieldScenario.car[184].veinsmobility speed ETV
74	266111 4437 16 187 15 186 172 -1.5643703371227 23.531530023604 1114.210728297 12309.328542316
73	270548 4849 16 187 15 186 172 -3.2864039672784 2.5304627731908 30.265622687601 184.83284310719
68	275397 4642 15 187 14 186 173 1.4898321218323 32.096294060727 4982.6831007404 148140.05928942
65	280039 2785 14 187 13 186 174 26.6 29.8 4762.8 130695.6
64	282824 4664 14 187 13 186 174 30.1 4981.0276459309 408004.18378741 1351002541.2863
vector 925 TestFieldScenario.car[186].veinsmobility posx ETV
vector 926 TestFieldScenario.car[186].veinsmobility posy ETV
vector 927 TestFieldScenario.car[184].veinsmobility acceleration ETV
vector 928 TestFieldScenario.car[184].veinsmobility co2emission ETV
vector 929 TestFieldScenario.car[185].veinsmobility speed ETV
vector 930 TestFieldScenario.car[187].veinsmobility posx ETV
vector 931 TestFieldScenario.car[187].veinsmobility posy ETV
vector 932 TestFieldScenario.car[185].veinsmobility acceleration ETV
vector 933 TestFieldScenario.car[185].veinsmobility co2emission ETV
vector 934 TestFieldScenario.car[186].veinsmobility speed ETV
vector 935 TestFieldScenario.car[188].veinsmobility posx ETV
vector 936 TestFieldScenario.car[188].veinsmobility posy ETV
vector 937 TestFieldScenario.car[186].veinsmobility acceleration ETV
vector 938 TestFieldScenario.car[186].veinsmobility co2emission ETV
vector 939 TestFieldScenario.car[187].veinsmobility speed ETV
87	288466 4377 19 190 18 189 172 -1.4657111824134 23.604016638399 1137.9763453905 12754.6229536
86	292843 4847 19 190 18 189 172 -3.4413932065097 2.5555772969732 27.840034039996 201.80515945718
82	297690 4657 18 190 17 189 173 2.2450350294122 32.269640411137 4987.8218493005 148212.24920909
78	302347 2791 17 190 16 189 174 26.6 29.8 4775.6 131417.52
77	305138 4668 17 190 16 189 174 30.1 4987.8367802311 405063.48566554 1333342760.0391
vector 940 TestFieldScenario.car[189].veinsmobility posx ETV
vector 941 TestFieldScenario.car[189].veinsmobility posy ETV
vector 942 TestFieldScenario.car[187].veinsmobility acceleration ETV
vector 943 TestFieldScenario.car[187].veinsmobility co2emission ETV
vector 944 TestFieldScenario.car[188].veinsmobility speed ETV
vector 945 TestFieldScenario.car[190].veinsmobility posx ETV
vector 946 TestFieldScenario.car[190].veinsmobility posy ETV
vector 947 TestFieldScenario.car[188].veinsmobility acceleration ETV
vector 948 TestFieldScenario.car[188].veinsmobility co2emission ETV
vector 949 TestFieldScenario.car[189].veinsmobility speed ETV
85	310458 4577 19 192 18 191 174 -1.3543094929735 22.530463084549 1045.6162582253 10328.373905752
84	315035 4936 19 192 18 191 174 -1.6925804057085 2.5500469468068 30.49800923719 138.33149787523
81	319971 4724 18 192 17 191 175 1.6839071209341 32.755565500365 4981.2515200862 147298.72579051
76	324695 2783 17 192 16 191 176 26.6 33 4918.4 138316.16
75	327478 4722 17 192 16 191 176 30.1 4979.1696037281 401279.19637675 1308640129.8108
vector 950 TestFieldScenario.car[191].veinsmobility posx ETV
vector 951 TestFieldScenario.car[191].veinsmobility posy ETV
vector 952 TestFieldScenario.car[189].veinsmobility acceleration ETV
vector 953 TestFieldScenario.car[189].veinsmobility co2emission ETV
vector 954 TestFieldScenario.car[190].veinsmobility speed ETV
42	332526 4813 10 193 9 192 184 -0.72830954962286 16.795327003078 964.36299312027 7615.6640584628
41	337339 5202 10 193 9 192 184 -1.7635644090688 2.4894425308332 26.149620855577 106.60532327301
37	342541 4976 9 193 8 192 185 2.0844450560166 29.286628840501 4990.1352567773 137822.33746134
33	347517 2972 8 193 7 192 186 26.6 29.8 5395.6 156873.36
32	350489 4984 8 193 7 192 186 30.1 4992.0011908657 449991.69243837 1503538011.7381
vector 955 TestFieldScenario.car[192].veinsmobility posx ETV
vector 956 TestFieldScenario.car[192].veinsmobility posy ETV
vector 957 TestFieldScenario.car[190].veinsmobility acceleration ETV
vector 958 TestFieldScenario.car[190].veinsmobility co2emission ETV
vector 959 TestFieldScenario.car[191].veinsmobility speed ETV
59	355799 4810 13 194 12 193 182 -0.9504025721642 16.610424519494 941.8210847017 7626.9406217999
58	360609 5164 13 194 12 193 182 -1.1205346737178 2.434692036733 26.635869644888 106.88160938117
53	365773 4933 12 194 11 193 183 1.5363052613102 29.28547540808 4968.8288570151 138169.25276971
50	370706 2949 11 194 10 193 184 26.6 29.8 5179.2 146253.76
49	373655 4916 11 194 10 193 184 30.1 4970.7566821089 443681.69814049 1474552102.992
vector 960 TestFieldScenario.car[193].veinsmobility posx ETV
vector 961 TestFieldScenario.car[193].veinsmobility posy ETV
vector 962 TestFieldScenario.car[191].veinsmobility acceleration ETV
vector 963 TestFieldScenario.car[191].veinsmobility co2emission ETV
vector 964 TestFieldScenario.car[192].veinsmobility speed ETV
vector 965 TestFieldScenario.car[194].veinsmobility posx ETV
vector 966 TestFieldScenario.car[194].veinsmobility posy ETV
vector 967 TestFieldScenario.car[192].veinsmobility acceleration ETV
vector 968 TestFieldScenario.car[192].veinsmobility co2emission ETV
vector 969 TestFieldScenario.car[193].veinsmobility speed ETV
vector 970 TestFieldScenario.car[195].veinsmobility posx ETV
vector 971 TestFieldScenario.car[195].veinsmobility posy ETV
vector 972 TestFieldScenario.car[193].veinsmobility acceleration ETV
vector 973 TestFieldScenario.car[193].veinsmobility co2emission ETV
vector 974 TestFieldScenario.car[194].veinsmobility speed ETV
vector 975 TestFieldScenario.car[196].veinsmobility posx ETV
vector 976 TestFieldScenario.car[196].veinsmobility posy ETV
vector 977 TestFieldScenario.car[194].veinsmobility acceleration ETV
vector 978 TestFieldScenario.car[194].veinsmobility co2emission ETV
vector 979 TestFieldScenario.car[195].veinsmobility speed ETV
vector 980 TestFieldScenario.car[197].veinsmobility posx ETV
vector 981 TestFieldScenario.car[197].veinsmobility posy ETV
vector 982 TestFieldScenario.car[195].veinsmobility acceleration ETV
vector 983 TestFieldScenario.car[195].veinsmobility co2emission ETV
vector 984 TestFieldScenario.car[196].veinsmobility speed ETV
vector 985 TestFieldScenario.car[198].veinsmobility posx ETV
vector 986 TestFieldScenario.car[198].veinsmobility posy ETV
vector 987 TestFieldScenario.car[196].veinsmobility acceleration ETV
vector 988 TestFieldScenario.car[196].veinsmobility co2emission ETV
vector 989 TestFieldScenario.car[197].veinsmobility speed ETV
vector 990 TestFieldScenario.car[199].veinsmobility posx ETV
vector 991 TestFieldScenario.car[199].veinsmobility posy ETV
vector 992 TestFieldScenario.car[197].veinsmobility acceleration ETV
vector 993 TestFieldScenario.car[197].veinsmobility co2emission ETV
vector 994 TestFieldScenario.car[198].veinsmobility speed ETV
vector 995 TestFieldScenario.car[200].veinsmobility posx ETV
vector 996 TestFieldScenario.car[200].veinsmobility posy ETV
vector 997 TestFieldScenario.car[198].veinsmobility acceleration ETV
vector 998 TestFieldScenario.car[198].veinsmobility co2emission ETV
vector 999 TestFieldScenario.car[199].veinsmobility speed ETV
vector 1000 TestFieldScenario.car[201].veinsmobility posx ETV
vector 1001 TestFieldScenario.car[201].veinsmobility posy ETV
vector 1002 TestFieldScenario.car[199].veinsmobility acceleration ETV
vector 1003 TestFieldScenario.car[199].veinsmobility co2emission ETV
vector 1004 TestFieldScenario.car[200].veinsmobility speed ETV
vector 1005 TestFieldScenario.car[202].veinsmobility posx ETV
vector 1006 TestFieldScenario.car[202].veinsmobility posy ETV
vector 1007 TestFieldScenario.car[200].veinsmobility acceleration ETV
vector 1008 TestFieldScenario.car[200].veinsmobility co2emission ETV
vector 1009 TestFieldScenario.car[201].veinsmobility speed ETV
25	381841 5120 7 204 6 203 198 0.054653346792952 15.655696364138 919.0639684397 6306.2563393856
24	386961 5632 7 204 6 203 198 -2.0700129654717 2.213205013168 23.829885199343 100.23452751602
21	392593 5357 6 204 5 203 199 1.8164076185087 27.370114960314 4982.0936113286 127467.76129344
16	397950 3168 5 204 4 203 200 26.6 33 5912 175208
15	401118 5354 5 204 4 203 200 30.1 4986.5473185108 480844.90808726 1597879743.533
100	406472 5028 22 204 21 203 183 -0.65070752632543 20.67057652535 950.76619342897 7614.7718024244
99	411500 5218 22 204 21 203 183 -1.4569967483422 2.5321104584029 25.809004618342 103.19953045624
96	416718 4975 21 204 20 203 184 2.4242163747549 29.095579912558 4980.7005420778 138141.95537588
91	421693 2946 20 204 19 203 185 26.6 33 5148.2 144101.8
90	424639 4962 20 204 19 203 185 30.1 4982.5673210847 442035.16382661 1468275203.1079
vector 1010 TestFieldScenario.car[203].veinsmobility posx ETV
vector 1011 TestFieldScenario.car[203].veinsmobility posy ETV
vector 1012 TestFieldScenario.car[201].veinsmobility acceleration ETV
vector 1013 TestFieldScenario.car[201].veinsmobility co2emission ETV
vector 1014 TestFieldScenario.car[202].veinsmobility speed ETV
149	429932 4716 31 205 30 204 175 -1.8426025013766 24.630506272109 1050.3161327789 11032.157046459
148	434648 5156 31 205 30 204 175 -2.6113349400908 2.5920682818396 26.62692586361 169.27220502598
143	439804 4948 30 205 29 204 176 1.8818428183345 32.625321947293 4965.6753151143 144308.14820836
140	444752 3043 29 205 28 204 177 26.6 26.6 4708.2 125238.12
139	447795 4945 29 205 28 204 177 30.1 4967.2665464324 415270.5677567 1357995428.2424
vector 1015 TestFieldScenario.car[204].veinsmobility posx ETV
vector 1016 TestFieldScenario.car[204].veinsmobility posy ETV
vector 1017 TestFieldScenario.car[202].veinsmobility acceleration ETV
vector 1018 TestFieldScenario.car[202].veinsmobility co2emission ETV
vector 1019 TestFieldScenario.car[203].veinsmobility speed ETV
vector 1020 TestFieldScenario.car[205].veinsmobility posx ETV
vector 1021 TestFieldScenario.car[205].veinsmobility posy ETV
vector 1022 TestFieldScenario.car[203].veinsmobility acceleration ETV
vector 1023 TestFieldScenario.car[203].veinsmobility co2emission ETV
vector 1024 TestFieldScenario.car[204].veinsmobility speed ETV
162	453402 4644 34 207 33 206 174 -1.9526946053442 24.913205173354 1125.1149995394 12928.833588677
161	458046 5094 34 207 33 206 174 -2.4462931031201 2.5038403026992 28.07793086522 197.93601598869
157	463140 4923 33 207 32 206 175 2.1753616272472 33.145875274065 4983.7579507927 146119.74984442
153	468063 3031 32 207 31 206 176 26.6 29.8 4723.2 126876.8
152	471094 4925 32 207 31 206 176 30.1 4983.6046583002 415015.98400688 1365962118.1824
vector 1025 TestFieldScenario.car[206].veinsmobility posx ETV
vector 1026 TestFieldScenario.car[206].veinsmobility posy ETV
vector 1027 TestFieldScenario.car[204].veinsmobility acceleration ETV
vector 1028 TestFieldScenario.car[204].veinsmobility co2emission ETV
vector 1029 TestFieldScenario.car[205].veinsmobility speed ETV
72	476350 4949 16 208 15 207 193 -0.57055759080829 14.801405423694 966.11173045747 7758.6373948859
71	481299 5476 16 208 15 207 193 -1.8421475223948 2.5762252358487 24.597601567161 129.99311828861
67	486775 5242 15 208 14 207 194 2.4174969819607 28.877903189764 4968.2733798213 130784.15598004
63	492017 3142 14 208 13 207 195 26.6 29.8 5590.2 160714.68
62	495159 5251 14 208 13 207 195 30.1 4971.3582812722 457879.40940099 1505082211.9443
179	500410 4525 37 208 36 207 172 -1.0359295049221 25.414383794576 1183.4063521788 15600.142614116
178	504935 5027 37 208 36 207 172 -2.4846323236394 2.4864070746116 28.802659303452 248.06325100285
173	509962 4876 36 208 35 207 173 0.87007074034143 35.062257153277 4969.5006049694 147698.73473523
170	514838 3001 35 208 34 207 174 26.6 26.6 4628.4 123115.44
169	517839 4872 35 208 34 207 174 30.1 4969.9278749256 411619.6565677 1354858511.5142
vector 1030 TestFieldScenario.car[207].veinsmobility posx ETV
vector 1031 TestFieldScenario.car[207].veinsmobility posy ETV
vector 1032 TestFieldScenario.car[205].veinsmobility acceleration ETV
vector 1033 TestFieldScenario.car[205].veinsmobility co2emission ETV
vector 1034 TestFieldScenario.car[206].veinsmobility speed ETV
vector 1035 TestFieldScenario.car[208].veinsmobility posx ETV
vector 1036 TestFieldScenario.car[208].veinsmobility posy ETV
vector 1037 TestFieldScenario.car[206].veinsmobility acceleration ETV
vector 1038 TestFieldScenario.car[206].veinsmobility co2emission ETV
vector 1039 TestFieldScenario.car[207].veinsmobility speed ETV
134	523373 4980 28 210 27 209 183 -1.0451631526287 22.912699432842 985.87668501368 9015.5436364896
133	528353 5405 28 210 27 209 183 -1.5203251761874 2.5341653024778 26.807533306397 134.88257189186
128	533758 5160 27 210 26 209 184 1.4452051295899 30.236083759351 4983.2158484747 138905.31673115
125	538918 3181 26 210 25 209 185 26.6 29.8 5129 142629.8
124	542099 5176 26 210 25 209 185 30.1 4985.0631100387 442091.64345098 1469751310.2451
160	547275 4591 34 210 33 209 177 -2.0948235595239 27.419263317047 1215.7761873424 15227.107716554
159	551866 5167 34 210 33 209 177 -3.1767915798074 2.5896812191 31.342978187803 241.68665080413
156	557033 5012 33 210 32 209 178 2.4737683475018 36.764941394227 4985.1949899666 145139.7525706
151	562045 3053 32 210 31 209 179 26.6 33 4953.4 137809.72
150	565098 5008 32 210 31 209 179 30.1 4981.4782434313 410601.70491407 1329838595.1862
[...]
14341	84418212 3890 2880 3001 2879 3000 122 -0.94395856826872 18.969213342497 684.31279310213 6482.3688109539
14340	84422102 4176 2880 3001 2879 3000 122 -1.5049125601026 2.3950530916685 24.909644799566 111.78496018523
14335	84426278 4045 2879 3001 2878 3000 123 1.4399157815846 30.641044799371 3273.0716578505 90642.988970748
14330	84430323 2728 2878 3001 2877 3000 124 26.6 26.6 3298.4 87737.44
14329	84433051 4054 2878 3001 2877 3000 124 30.1 3276.8220972694 196751.06237324 436020273.22155
14356	84437105 3799 2883 3001 2882 3000 119 -1.5785586163457 21.639057035777 716.41530876332 7991.12264909
14355	84440904 4058 2883 3001 2882 3000 119 -2.0657147153956 2.5870660734829 26.607800985176 140.9144237083
14350	84444962 3949 2882 3001 2881 3000 120 1.3320220856695 32.726055927744 3235.7743867997 90971.564240338
14345	84448911 2662 2881 3001 2880 3000 121 26.6 26.6 3218.6 85614.76
14344	84451573 3955 2881 3001 2880 3000 121 30.1 3237.9345637288 191262.76869525 420019036.08398
14371	84455528 3687 2886 3001 2885 3000 116 -0.90892562077614 22.458748194621 695.12940442662 7525.2188524888
14370	84459215 3961 2886 3001 2885 3000 116 -2.5915784578239 2.3573152441531 23.81977313728 132.76727565939
14365	84463176 3849 2885 3001 2884 3000 117 2.536936830054 30.778753618398 3158.3530197634 88621.821910485
14360	84467025 2596 2884 3001 2883 3000 118 26.6 26.6 3138.8 83492.08
14359	84469621 3865 2884 3001 2883 3000 118 30.1 3162.0963097961 177617.87285525 377790484.19375
14384	84473486 3602 2889 3001 2888 3000 113 -0.63274164021396 18.201953622888 592.95977257235 4898.1134928905
14383	84477088 3866 2889 3001 2888 3000 113 -1.8381070648369 2.3661019372055 24.369251736565 88.103895880764
14380	84480954 3747 2888 3001 2887 3000 114 2.4413310123375 28.206809824123 2910.0722529212 76860.766342236
14375	84484701 2530 2887 3001 2886 3000 115 26.6 29.8 3215.8 90212.92
14374	84487231 3760 2887 3001 2886 3000 115 30.1 2913.3616701722 159378.50507628 310615328.89765
14399	84490991 3453 2892 3001 2891 3000 110 -1.173009529612 21.742088605845 730.91228226731 8763.7331740447
14398	84494444 3730 2892 3001 2891 3000 110 -3.1121648999274 2.5076973031275 23.72458971778 165.12237424428
14393	84498174 3652 2891 3001 2890 3000 111 1.4478999956278 31.898246598433 3081.9000512923 89403.385564329
14390	84501826 2464 2890 3001 2889 3000 112 26.6 26.6 2979.2 79246.72
14389	84504290 3666 2890 3001 2889 3000 112 30.1 3086.8275615789 166067.02247213 347329384.02733
14414	84507956 3401 2895 3001 2894 3000 107 -0.96926942261345 24.923239961253 690.10887485997 7535.0641914971
14413	84511357 3651 2895 3001 2894 3000 107 -2.0998558270125 2.5175917883404 27.260130224778 117.48960644436
14408	84515008 3546 2894 3001 2893 3000 108 2.1474775027484 32.76086257104 3026.3533026007 88985.602293129
14405	84518554 2398 2893 3001 2892 3000 109 26.6 26.6 2899.4 77124.04
14404	84520952 3560 2893 3001 2892 3000 109 30.1 3027.0456948732 154270.59257569 308258839.01569
14429	84524512 3349 2898 3001 2897 3000 104 -0.54599443961994 19.936274127193 528.70201101595 4226.3478368196
14428	84527861 3572 2898 3001 2897 3000 104 -0.98087911845651 2.5817610908533 25.196404295733 77.495139282079
14423	84531433 3444 2897 3001 2896 3000 105 1.7236488784663 27.388157455709 2637.0232780128 68968.009086386
14420	84534877 2332 2896 3001 2895 3000 106 26.6 26.6 2819.6 75001.36
14419	84537209 3463 2896 3001 2895 3000 106 30.1 2640.2032248386 132003.44701819 232946839.38049
14444	84540672 3198 2901 3001 2900 3000 101 -0.32914257016899 20.740806104951 555.64858549241 4965.9789270289
14443	84543870 3450 2901 3001 2900 3000 101 -1.5017543226326 2.424653778295 24.97069755655 93.264548674138
14438	84547320 3353 2900 3001 2899 3000 102 1.6427557613002 30.770777936693 2599.5628052272 69266.838485438
14435	84550673 2266 2899 3001 2898 3000 103 26.6 26.6 2739.8 72878.68
14434	84552939 3363 2899 3001 2898 3000 103 30.1 2603.0493519093 127479.00821674 222556995.6724
14456	84556302 3049 2904 3001 2903 3000 98 -0.0570154291641 23.892033466712 625.21219514691 7066.4420851956
14455	84559351 3335 2904 3001 2903 3000 98 -2.2977377488278 2.5421099120751 25.512010255258 141.8095944851
14452	84562686 3262 2903 3001 2902 3000 99 1.7554333114298 34.558458094423 2562.8502202008 69748.358871854
14448	84565948 2200 2902 3001 2901 3000 100 26.6 26.6 2660 70756
14447	84568148 3269 2902 3001 2901 3000 100 30.1 2565.6827766341 122993.46360529 212419176.86207
14471	84571417 2967 2907 3001 2906 3000 95 -0.60480989313373 24.717040678464 625.2178610796 7055.011715066
14470	84574384 3230 2907 3001 2906 3000 95 -3.1976926123727 2.5913814192638 24.923158536614 143.62503154236
14467	84577614 3162 2906 3001 2905 3000 96 2.5198103138013 33.032358828237 2524.8465820574 69694.751534067
14461	84580776 2134 2905 3001 2904 3000 97 26.6 26.6 2580.2 68633.32
14460	84582910 3169 2905 3001 2904 3000 97 30.1 2527.503613207 118282.77223031 202081095.06067
14486	84586079 2935 2910 3001 2909 3000 92 -0.3074285923655 18.350354801056 512.17496553951 4427.9450219347
14485	84589014 3143 2910 3001 2909 3000 92 -1.3644618376797 2.4558717553271 25.433840619677 82.071454429419
14482	84592157 3057 2909 3001 2908 3000 93 2.0614545453107 28.739324692941 2398.9226535059 64692.983058473
14476	84595214 2068 2908 3001 2907 3000 94 26.6 26.6 2500.4 66510.64
14475	84597282 3077 2908 3001 2907 3000 94 30.1 2401.5273583409 106594.60233496 171768513.89017
14501	84600359 2758 2913 3001 2912 3000 89 -0.16907549283281 21.31279499146 548.33062923755 6068.8503645797
14500	84603117 3032 2913 3001 2912 3000 89 -2.1063474886021 2.5969696829794 24.160989428333 124.89771094712
14497	84606149 2964 2912 3001 2911 3000 90 1.6741796138929 29.331683877558 2319.4342438652 62724.236431907
14491	84609113 2002 2911 3001 2910 3000 91 26.6 26.6 2420.6 64387.96
14490	84611115 2969 2911 3001 2910 3000 91 30.1 2323.699074823 99688.534306338 155532159.77475
14516	84614084 2717 2916 3001 2915 3000 86 -0.41726036041863 18.207884727463 508.38320549646 4500.787664976
14515	84616801 2936 2916 3001 2915 3000 86 -1.9418235875267 2.4754483404569 25.534764198114 86.283985429273
14512	84619737 2863 2915 3001 2914 3000 87 1.7979829928838 29.17084621233 2259.1632610318 61661.001828257
14506	84622600 1936 2914 3001 2913 3000 88 26.6 29.8 2404.8 65874.88
14505	84624536 2871 2914 3001 2913 3000 88 30.1 2261.9305138408 93249.955956478 141674213.76456
14531	84627407 2681 2919 3001 2918 3000 83 -0.4803437888074 16.411115972527 479.8324861083 4369.1458556367
14530	84630088 2837 2919 3001 2918 3000 83 -1.5050740291621 2.5514099452877 25.79159580965 79.73965666866
14527	84632925 2763 2918 3001 2917 3000 84 1.9345635750098 29.524810146612 2189.2950068343 60088.950485292
14521	84635688 1870 2917 3001 2916 3000 85 26.6 29.8 2347.4 65015.56
14520	84637558 2775 2917 3001 2916 3000 85 30.1 2191.6688474497 86761.198459346 127351124.00507
14546	84640333 2568 2922 3001 2921 3000 80 -0.6550881193028 16.667134804852 455.08519834046 3945.8569959374
14545	84642901 2747 2922 3001 2921 3000 80 -1.4492613707128 2.5566164080519 24.797055620752 75.470485663152
14542	84645648 2662 2921 3001 2920 3000 81 2.3604406634811 28.785475486072 2093.1500678082 56707.739353234
14536	84648310 1804 2920 3001 2919 3000 82 26.6 29.8 2206.8 59463.76
14535	84650114 2678 2920 3001 2919 3000 82 30.1 2096.092571524 80257.264204584 112547119.63849
14563	84652792 2426 2925 3001 2924 3000 77 -0.81388601104415 18.788507494116 507.71384868487 5145.9319585712
14562	84655218 2624 2925 3001 2924 3000 77 -1.8847094825116 2.5543019215809 27.494525139304 97.094541484252
14557	84657842 2567 2924 3001 2923 3000 78 2.4140437951777 29.941078975159 2030.0782600964 55689.414712133
14551	84660409 1738 2923 3001 2922 3000 79 26.6 26.6 2101.4 55897.24
14550	84662147 2577 2923 3001 2922 3000 79 30.1 2030.2696911619 74089.936102577 100144994.16172
14576	84664724 2316 2928 3001 2927 3000 74 -1.2516409961719 22.823306919315 550.47045081374 6976.976607758
14575	84667040 2499 2928 3001 2927 3000 74 -3.7210149394951 2.5538888026495 26.934998931443 147.72960022821
14574	84669539 2471 2927 3001 2926 3000 75 2.2151963232318 31.977671133075 1945.8404089522 53999.750942703
14566	84672010 1672 2926 3001 2925 3000 76 26.6 26.6 2021.6 53774.56
14565	84673682 2481 2926 3001 2925 3000 76 30.1 1946.7902136975 67911.344024022 88406261.192126
14591	84676163 2172 2931 3001 2930 3000 71 -0.084149185491564 24.815301475104 552.27857721766 7429.3187951616
14590	84678335 2399 2931 3001 2930 3000 71 -3.847578580016 2.5900906132534 26.887329331109 155.84789138204
14587	84680734 2365 2930 3001 2929 3000 72 2.3248193925014 32.977968456343 1905.50328664 53650.876827106
14581	84683099 1606 2929 3001 2928 3000 73 26.6 26.6 1941.8 51651.88
14580	84684705 2378 2929 3001 2928 3000 73 30.1 1906.3911379164 64803.103912606 82883413.434345
14606	84687083 2111 2934 3001 2933 3000 68 -0.52073950047424 24.737206888667 547.87110696783 7603.5368743178
14605	84689194 2293 2934 3001 2933 3000 68 -3.077313610803 2.449788593431 27.400733161917 151.36503908223
14602	84691487 2257 2933 3001 2932 3000 69 1.7127261486836 35.275166293722 1864.8263335594 54450.664855799
14596	84693744 1540 2932 3001 2931 3000 70 26.6 26.6 1862 49529.2
14595	84695284 2282 2932 3001 2931 3000 70 30.1 1865.8128742488 60735.771662908 76709325.058679
14621	84697566 2063 2937 3001 2936 3000 65 0.66699189045956 16.665106710948 304.28565507445 2168.7987881793
14620	84699629 2232 2937 3001 2936 3000 65 -1.0690190677065 2.5315922208829 21.543501500794 62.122283121743
14617	84701861 2169 2936 3001 2935 3000 66 2.0272423092043 24.407702971747 1427.1412125307 32402.593322985
14611	84704030 1474 2935 3001 2934 3000 67 26.6 29.8 1935.8 56069.56
14610	84705504 2183 2935 3001 2934 3000 67 30.1 1433.6704687207 45117.221416812 43289900.114974
14636	84707687 1954 2940 3001 2939 3000 62 0.10147344896166 19.523639867046 411.54390839173 4585.4920243035
14635	84709641 2098 2940 3001 2939 3000 62 -2.263567647175 2.4595866742078 26.280595614191 99.24983786862
14632	84711739 2072 2939 3001 2938 3000 63 2.2512781712227 30.191985858411 1549.0983520225 41054.64000074
14626	84713811 1408 2938 3001 2937 3000 64 26.6 26.6 1702.4 45283.84
14625	84715219 2078 2938 3001 2937 3000 64 30.1 1550.6664782371 45031.626036378 46493147.219376
14651	84717297 1908 2943 3001 2942 3000 59 -0.71771130727717 20.150103915745 361.7341461128 3395.6529898946
14650	84719205 2002 2943 3001 2942 3000 59 -2.6883425620927 2.5690501915524 26.30927727533 78.044905652661
14647	84721207 1975 2942 3001 2941 3000 60 1.5514112903737 28.332771064862 1461.4835743868 38446.080482815
14641	84723182 1342 2941 3001 2940 3000 61 26.6 26.6 1622.6 43161.16
14640	84724524 1985 2941 3001 2940 3000 61 30.1 1463.7228858211 40346.694158669 39386876.098398
14666	84726509 1795 2946 3001 2945 3000 56 0.084033801944689 14.156371493618 292.22518673628 2290.8840833892
14665	84728304 1913 2946 3001 2945 3000 56 -1.1480107887193 2.5825267446227 23.571554622808 61.128871816316
14662	84730217 1877 2945 3001 2944 3000 57 1.5748293817509 26.219278165825 1293.1945484867 31341.016559223
14656	84732094 1276 2944 3001 2943 3000 58 26.6 29.8 1600.4 44287.12
14655	84733370 1887 2944 3001 2943 3000 58 30.1 1298.1481644822 34566.313149037 30048274.833335
14681	84735257 1673 2949 3001 2948 3000 53 -0.86269302424169 22.068780115149 354.72781353327 4027.7368227505
14680	84736930 1793 2949 3001 2948 3000 53 -3.3590640526289 2.5863625580678 25.351975453853 100.45044604138
14677	84738723 1774 2948 3001 2947 3000 54 2.0202600311022 30.299588861887 1284.3579289472 32985.698546537
14671	84740497 1210 2947 3001 2946 3000 55 26.6 26.6 1463 38915.8
14670	84741707 1786 2947 3001 2946 3000 55 30.1 1287.0856934623 31387.427582418 26535950.918588
14696	84743493 1573 2952 3001 2951 3000 50 -0.67464736301248 21.792730476668 354.5233833663 4267.3919755815
14695	84745066 1691 2952 3001 2951 3000 50 -3.7418983745575 2.3251055723522 25.461731190185 99.366228134267
14692	84746757 1676 2951 3001 2950 3000 51 2.1971689682221 30.873395460769 1245.9210602645 33429.941861248
14686	84748433 1144 2950 3001 2949 3000 52 26.6 26.6 1383.2 36793.12
14685	84749577 1692 2950 3001 2949 3000 52 30.1 1248.3621601061 28653.189455877 23720753.74921
14711	84751269 1523 2955 3001 2954 3000 47 0.11660345780889 13.372806274414 226.60182418907 1566.3613491795
14710	84752792 1611 2955 3001 2954 3000 47 -0.75487758577801 2.3991832152475 21.851019703099 46.679148661736
14707	84754403 1580 2954 3001 2953 3000 48 1.8462807203177 24.401615146935 1002.7631092621 22637.055499437
14701	84755983 1078 2953 3001 2952 3000 49 26.6 26.6 1303.4 34670.44
14700	84757061 1590 2953 3001 2952 3000 49 30.1 1009.1658088387 22217.360204036 14867584.124881
14726	84758651 1393 2958 3001 2957 3000 44 -0.016189475266507 19.614136863063 239.33544668849 2352.0818446007
14725	84760044 1501 2958 3001 2957 3000 44 -1.2282026147606 2.4439074576134 22.168460154905 67.933394181593
14722	84761545 1480 2957 3001 2956 3000 45 1.493617903511 27.988055269979 967.46469437234 22757.258238395
14716	84763025 1012 2956 3001 2955 3000 46 26.6 26.6 1223.6 32547.76
14715	84764037 1495 2956 3001 2955 3000 46 30.1 973.90261631392 20221.70059977 13181015.371968
14741	84765532 1252 2961 3001 2960 3000 41 0.025591497076477 19.569364188351 265.81561477645 2774.5627759386
14740	84766784 1374 2961 3001 2960 3000 41 -2.159802420257 2.4407265510177 22.268733873745 83.688030178323
14737	84768158 1374 2960 3001 2959 3000 42 2.0257952907356 27.761796015017 896.64183795426 21082.883618252
14731	84769532 946 2959 3001 2958 3000 43 26.6 26.6 1143.8 30425.08
14730	84770478 1394 2959 3001 2958 3000 43 30.1 902.44730878978 17402.114811978 10506839.376997
14756	84771872 1163 2964 3001 2963 3000 38 0.73856615916924 18.23351266314 255.94864042353 2718.1996411451
14755	84773035 1284 2964 3001 2963 3000 38 -3.0056279085901 2.550798482378 22.073875912789 90.914858695168
14752	84774319 1277 2963 3001 2962 3000 39 1.9642412128393 27.656637975954 821.67875743358 19019.753457529
14746	84775596 880 2962 3001 2961 3000 40 26.6 26.6 1064 28302.4
14745	84776476 1292 2962 3001 2961 3000 40 30.1 827.74064030795 14805.455716621 8186154.8879222
14771	84777768 1070 2967 3001 2966 3000 35 0.973 23.861037793796 260.61365716299 3096.7319525738
14770	84778838 1173 2967 3001 2966 3000 35 -2.8963682193723 2.5680965033825 21.279648964833 90.933136252787
14767	84780011 1185 2966 3001 2965 3000 36 2.3435588644817 31.514798944671 784.25172953301 19427.270264454
14761	84781196 814 2965 3001 2964 3000 37 26.6 26.6 984.2 26179.72
14760	84782010 1196 2965 3001 2964 3000 37 30.1 790.7285217037 12784.726455333 6793807.5927263
14786	84783206 1000 2970 3001 2969 3000 32 0.973 20.497278040769 248.7195134126 2978.3183814903
14785	84784206 1076 2970 3001 2969 3000 32 -3.6452668817052 2.5111167892348 21.186693948855 98.557928024214
14782	84785282 1083 2969 3001 2968 3000 33 2.0822512658546 30.06468748262 743.88245970101 19190.413627969
14776	84786365 748 2968 3001 2967 3000 34 26.6 26.6 904.4 24057.04
14775	84787113 1096 2968 3001 2967 3000 34 30.1 750.7135144863 10938.028655273 5471298.7384661
14801	84788209 931 2973 3001 2972 3000 29 0.6215674828555 17.40566348213 208.30363208405 2123.2882071097
14800	84789140 977 2973 3001 2972 3000 29 -0.96030432488769 2.581800093269 26.842831538622 58.149386822395
14797	84790117 987 2972 3001 2971 3000 30 1.4018923592754 28.244723897897 638.66220993572 15713.161107874
14791	84791104 682 2971 3001 2970 3000 31 26.6 26.6 824.6 21934.36
14790	84791786 996 2971 3001 2970 3000 31 30.1 640.51748603782 8260.2114775569 3432683.996944
14816	84792782 818 2976 3001 2975 3000 26 -0.20327695516671 20.651932828793 226.85102509714 3159.8020900686
14815	84793600 873 2976 3001 2975 3000 26 -1.6876874658373 2.5497369884281 26.469129490477 71.611980978819
14812	84794473 888 2975 3001 2974 3000 27 2.1846973603358 33.021862203823 590.09214798472 15640.013253997
14806	84795361 616 2974 3001 2973 3000 28 26.6 26.6 744.8 19811.68
14805	84795977 900 2974 3001 2973 3000 28 30.1 591.53832113391 6617.3919847446 2521549.6145363
14831	84796877 756 2979 3001 2978 3000 23 0.59616577936546 21.53535046712 205.57518243049 2585.5132321908
14830	84797633 770 2979 3001 2978 3000 23 -0.62886530866381 2.5723713657353 28.053115689394 61.98611221758
14827	84798403 791 2978 3001 2977 3000 24 2.4560824901098 31.233700089937 528.8192527826 13830.082831312
14821	84799194 550 2977 3001 2976 3000 25 26.6 26.6 665 17689
14820	84799744 798 2977 3001 2976 3000 25 30.1 528.4100546031 5354.5635510351 1804036.2199509
14846	84800542 638 2982 3001 2981 3000 20 0.973 16.278246439011 164.69473793817 1812.6586639931
14845	84801180 666 2982 3001 2981 3000 20 -0.95833489494398 2.3656794421608 26.275261595507 52.558218075319
14842	84801846 689 2981 3001 2980 3000 21 1.6537543928949 27.955428945424 379.28120496062 8580.4113317852
14836	84802535 484 2980 3001 2979 3000 22 26.6 26.6 585.2 15566.32
14835	84803019 701 2980 3001 2979 3000 22 30.1 381.45218897222 3338.5881147186 792596.17356516
14861	84803720 553 2985 3001 2984 3000 17 2.3714549374038 17.88318624595 131.8303101796 1276.1713877921
14860	84804273 561 2985 3001 2984 3000 17 0.1499299055431 2.362003499968 24.963006358791 45.262983795034
14857	84804834 591 2984 3001 2983 3000 18 1.2419550854327 26.204961444224 282.55099705676 5629.398921719
14851	84805425 418 2983 3001 2982 3000 19 26.6 26.6 505.4 13443.64
14850	84805843 602 2983 3001 2982 3000 19 30.1 286.44603561254 2219.6949804372 388263.85860223
14876	84806445 460 2988 3001 2987 3000 14 3.1087664145643 20.048605743067 137.67818336498 1752.930656036
14875	84806905 461 2988 3001 2987 3000 14 1.3446903352626 2.5907517574262 26.976927982783 54.539826166308
14872	84807366 494 2987 3001 2986 3000 15 1.3899024543325 28.366830437115 218.59146404211 4180.341484584
14866	84807860 352 2986 3001 2985 3000 16 26.6 26.6 425.6 11320.96
14865	84808212 506 2986 3001 2985 3000 16 30.1 220.32463360499 1484.4922323556 196801.09068121
14891	84808718 363 2991 3001 2990 3000 11 2.3346845298065 13.397225519161 84.913293923939 775.566270262
14890	84809081 363 2991 3001 2990 3000 11 1.3312345360406 2.5066793063888 20.108156118891 38.523590222118
14887	84809444 396 2990 3001 2989 3000 12 1.8581049589906 21.966261077882 143.43921035957 2203.3165212661
14881	84809840 286 2989 3001 2988 3000 13 26.6 26.6 345.8 9198.28
14880	84810126 407 2989 3001 2988 3000 13 30.1 151.57294928168 916.02604983912 84952.415767389
14906	84810533 263 2994 3001 2993 3000 8 3.1074780187226 10.79187126625 56.606015769783 453.10827938115
14905	84810796 264 2994 3001 2993 3000 8 1.5660460644867 2.5179073541658 16.431732573151 34.372143594286
14902	84811060 294 2993 3001 2992 3000 9 1.3647541114362 17.796486684587 88.130277860747 1116.4747605164
14896	84811354 220 2992 3001 2991 3000 10 26.6 26.6 266 7075.6
14895	84811574 307 2992 3001 2991 3000 10 30.1 100.43379117616 530.29669542101 33720.139315387
14921	84811881 165 2997 3001 2996 3000 5 3.3897652313734 5.5869675417566 23.761153804267 116.53966529513
14920	84812046 164 2997 3001 2996 3000 5 1.3503589568427 2.5256697520148 8.8214274202939 16.580508123185
14917	84812210 198 2996 3001 2995 3000 6 2.1811613337137 11.002588754008 41.797974446137 345.97615022367
14911	84812408 154 2995 3001 2994 3000 7 26.6 26.6 186.2 4952.92
14910	84812562 209 2995 3001 2994 3000 7 30.1 60.895385692129 284.45090989431 12399.531266066
14936	84812771 66 3000 3001 2999 3000 2 2.3297736119213 3.7952836663438 6.1250572782652 19.832023190821
14935	84812837 65 3000 3001 2999 3000 2 1.519482684345 2.0323196018348 3.5518022861797 6.439150592026
14932	84812902 99 2999 3001 2998 3000 3 1.4180851460667 4.9698874322465 9.3255404087249 35.340051328966
14926	84813001 88 2998 3001 2997 3000 4 26.6 26.6 106.4 2830.24
14925	84813089 110 2998 3001 2997 3000 4 30.1 34.455652976478 126.17373812255 3992.6017133102
14941	84813199 22 3001 3001 3000 3000 1 26.6 26.6 26.6 707.56
14940	84813221 22 3001 3001 3000 3000 1 30.1 30.1 30.1 906.01

