file 3263000 1626334933                                         
version 2
run WithBeaconing-0-20210715-15:19:26-12840
attr configname WithBeaconing
attr datetime 20210715-15:19:26
attr experiment WithBeaconing
attr inifile omnetpp.ini
attr iterationvars ""
attr iterationvarsf ""
attr measurement ""
attr network TestFieldScenario
attr processid 12840
attr repetition 0
attr replication #0
attr resultdir results
attr runnumber 0
attr seedset 0
param *.rsu[*].appl.sendBeacons true
param *.car[*].appl.sendBeacons true
param *.playgroundSizeX 25000m
param *.playgroundSizeY 500m
param *.playgroundSizeZ 50m
param *.annotations.draw true
param *.manager.updateInterval 1s
param *.manager.host "\"localhost\""
param *.manager.port 9999
param *.manager.moduleName "\"car\""
param *.manager.autoShutdown true
param *.manager.launchConfig "xmldoc(\"test4.launchd.xml\")"
param *.numRSUs 12
param *.rsu[0].mobility.x 10
param *.rsu[0].mobility.y 40
param *.rsu[0].mobility.z 50
param *.rsu[1].mobility.x 450
param *.rsu[1].mobility.y 40
param *.rsu[1].mobility.z 50
param *.rsu[2].mobility.x 900
param *.rsu[2].mobility.y 40
param *.rsu[2].mobility.z 50
param *.rsu[3].mobility.x 1350
param *.rsu[3].mobility.y 40
param *.rsu[3].mobility.z 50
param *.rsu[4].mobility.x 1800
param *.rsu[4].mobility.y 40
param *.rsu[4].mobility.z 50
param *.rsu[5].mobility.x 2250
param *.rsu[5].mobility.y 40
param *.rsu[5].mobility.z 50
param *.rsu[6].mobility.x 2700
param *.rsu[6].mobility.y 40
param *.rsu[6].mobility.z 50
param *.rsu[7].mobility.x 3150
param *.rsu[7].mobility.y 40
param *.rsu[7].mobility.z 50
param *.rsu[8].mobility.x 3600
param *.rsu[8].mobility.y 40
param *.rsu[8].mobility.z 50
param *.rsu[9].mobility.x 4050
param *.rsu[9].mobility.y 40
param *.rsu[9].mobility.z 50
param *.rsu[10].mobility.x 4500
param *.rsu[10].mobility.y 40
param *.rsu[10].mobility.z 50
param *.rsu[11].mobility.x 4950
param *.rsu[11].mobility.y 40
param *.rsu[11].mobility.z 50
param *.rsu[*].applType "\"RoadSideDevice_HSY\""
param *.rsu[*].appl.headerLength "80 bit"
param *.rsu[*].appl.sendBeacons false
param *.rsu[*].appl.dataOnSch false
param *.rsu[*].appl.beaconInterval 10s
param *.rsu[*].appl.beaconUserPriority 7
param *.rsu[*].appl.dataUserPriority 5
param *.rsu[*].nic.phy80211p.antennaOffsetZ "0 m"
param *.connectionManager.sendDirect true
param *.connectionManager.maxInterfDist 250m
param *.connectionManager.drawMaxIntfDist true
param *.**.nic.mac1609_4.useServiceChannel false
param *.**.nic.mac1609_4.txPower 20mW
param *.**.nic.mac1609_4.bitrate 6Mbps
param *.**.nic.phy80211p.minPowerLevel -110dBm
param *.**.nic.phy80211p.useNoiseFloor true
param *.**.nic.phy80211p.noiseFloor -98dBm
param *.**.nic.phy80211p.decider "xmldoc(\"config.xml\")"
param *.**.nic.phy80211p.analogueModels "xmldoc(\"config.xml\")"
param *.**.nic.phy80211p.usePropagationDelay true
param *.**.nic.phy80211p.antenna "xmldoc(\"antenna.xml\", \"/root/Antenna[@id='monopole']\")"
param *.car[*].nic.phy80211p.antennaOffsetY "0 m"
param *.car[*].nic.phy80211p.antennaOffsetZ "1.895 m"
param *.car[*].applType "\"OnBoardUnit_HSY\""
param *.car[*].appl.headerLength "80 bit"
param *.car[*].appl.sendBeacons false
param *.car[*].appl.dataOnSch false
param *.car[*].appl.beaconInterval 1s
param *.car[*].veinsmobility.x 0
param *.car[*].veinsmobility.y 0
param *.car[*].veinsmobility.z 0
param *.car[*].veinsmobility.setHostSpeed false
param *.car[*0].veinsmobility.accidentCount 1
param *.car[*0].veinsmobility.accidentStart 7300s
param *.car[*0].veinsmobility.accidentDuration 50s

vector 0 TestFieldScenario.car[0].veinsmobility posx ETV
vector 1 TestFieldScenario.car[0].veinsmobility posy ETV
vector 2 TestFieldScenario.car[1].veinsmobility posx ETV
vector 3 TestFieldScenario.car[1].veinsmobility posy ETV
vector 4 TestFieldScenario.car[2].veinsmobility posx ETV
vector 5 TestFieldScenario.car[2].veinsmobility posy ETV
vector 6 TestFieldScenario.car[0].veinsmobility speed ETV
vector 7 TestFieldScenario.car[1].veinsmobility speed ETV
vector 8 TestFieldScenario.car[2].veinsmobility speed ETV
vector 9 TestFieldScenario.car[0].veinsmobility acceleration ETV
vector 10 TestFieldScenario.car[0].veinsmobility co2emission ETV
vector 11 TestFieldScenario.car[1].veinsmobility acceleration ETV
vector 12 TestFieldScenario.car[1].veinsmobility co2emission ETV
vector 13 TestFieldScenario.car[2].veinsmobility acceleration ETV
vector 14 TestFieldScenario.car[2].veinsmobility co2emission ETV
vector 15 TestFieldScenario.car[3].veinsmobility posx ETV
vector 16 TestFieldScenario.car[3].veinsmobility posy ETV
vector 17 TestFieldScenario.car[4].veinsmobility posx ETV
vector 18 TestFieldScenario.car[4].veinsmobility posy ETV
vector 19 TestFieldScenario.car[5].veinsmobility posx ETV
vector 20 TestFieldScenario.car[5].veinsmobility posy ETV
vector 21 TestFieldScenario.car[3].veinsmobility speed ETV
vector 22 TestFieldScenario.car[4].veinsmobility speed ETV
vector 23 TestFieldScenario.car[5].veinsmobility speed ETV
vector 24 TestFieldScenario.car[3].veinsmobility acceleration ETV
vector 25 TestFieldScenario.car[3].veinsmobility co2emission ETV
vector 26 TestFieldScenario.car[4].veinsmobility acceleration ETV
vector 27 TestFieldScenario.car[4].veinsmobility co2emission ETV
vector 28 TestFieldScenario.car[5].veinsmobility acceleration ETV
vector 29 TestFieldScenario.car[5].veinsmobility co2emission ETV
vector 30 TestFieldScenario.car[6].veinsmobility posx ETV
vector 31 TestFieldScenario.car[6].veinsmobility posy ETV
vector 32 TestFieldScenario.car[7].veinsmobility posx ETV
vector 33 TestFieldScenario.car[7].veinsmobility posy ETV
vector 34 TestFieldScenario.car[8].veinsmobility posx ETV
vector 35 TestFieldScenario.car[8].veinsmobility posy ETV
vector 36 TestFieldScenario.car[6].veinsmobility speed ETV
vector 37 TestFieldScenario.car[7].veinsmobility speed ETV
vector 38 TestFieldScenario.car[8].veinsmobility speed ETV
vector 39 TestFieldScenario.car[6].veinsmobility acceleration ETV
vector 40 TestFieldScenario.car[6].veinsmobility co2emission ETV
vector 41 TestFieldScenario.car[7].veinsmobility acceleration ETV
vector 42 TestFieldScenario.car[7].veinsmobility co2emission ETV
vector 43 TestFieldScenario.car[8].veinsmobility acceleration ETV
vector 44 TestFieldScenario.car[8].veinsmobility co2emission ETV
vector 45 TestFieldScenario.car[9].veinsmobility posx ETV
vector 46 TestFieldScenario.car[9].veinsmobility posy ETV
vector 47 TestFieldScenario.car[10].veinsmobility posx ETV
vector 48 TestFieldScenario.car[10].veinsmobility posy ETV
vector 49 TestFieldScenario.car[11].veinsmobility posx ETV
vector 50 TestFieldScenario.car[11].veinsmobility posy ETV
vector 51 TestFieldScenario.car[9].veinsmobility speed ETV
vector 52 TestFieldScenario.car[10].veinsmobility speed ETV
vector 53 TestFieldScenario.car[11].veinsmobility speed ETV
vector 54 TestFieldScenario.car[9].veinsmobility acceleration ETV
vector 55 TestFieldScenario.car[9].veinsmobility co2emission ETV
vector 56 TestFieldScenario.car[10].veinsmobility acceleration ETV
vector 57 TestFieldScenario.car[10].veinsmobility co2emission ETV
vector 58 TestFieldScenario.car[11].veinsmobility acceleration ETV
vector 59 TestFieldScenario.car[11].veinsmobility co2emission ETV
vector 60 TestFieldScenario.car[12].veinsmobility posx ETV
vector 61 TestFieldScenario.car[12].veinsmobility posy ETV
vector 62 TestFieldScenario.car[13].veinsmobility posx ETV
vector 63 TestFieldScenario.car[13].veinsmobility posy ETV
vector 64 TestFieldScenario.car[14].veinsmobility posx ETV
vector 65 TestFieldScenario.car[14].veinsmobility posy ETV
vector 66 TestFieldScenario.car[12].veinsmobility speed ETV
vector 67 TestFieldScenario.car[13].veinsmobility speed ETV
vector 68 TestFieldScenario.car[14].veinsmobility speed ETV
vector 69 TestFieldScenario.car[12].veinsmobility acceleration ETV
vector 70 TestFieldScenario.car[12].veinsmobility co2emission ETV
vector 71 TestFieldScenario.car[13].veinsmobility acceleration ETV
vector 72 TestFieldScenario.car[13].veinsmobility co2emission ETV
vector 73 TestFieldScenario.car[14].veinsmobility acceleration ETV
vector 74 TestFieldScenario.car[14].veinsmobility co2emission ETV
vector 75 TestFieldScenario.car[15].veinsmobility posx ETV
vector 76 TestFieldScenario.car[15].veinsmobility posy ETV
vector 77 TestFieldScenario.car[16].veinsmobility posx ETV
vector 78 TestFieldScenario.car[16].veinsmobility posy ETV
vector 79 TestFieldScenario.car[17].veinsmobility posx ETV
vector 80 TestFieldScenario.car[17].veinsmobility posy ETV
vector 81 TestFieldScenario.car[15].veinsmobility speed ETV
vector 82 TestFieldScenario.car[16].veinsmobility speed ETV
vector 83 TestFieldScenario.car[17].veinsmobility speed ETV
vector 84 TestFieldScenario.car[15].veinsmobility acceleration ETV
vector 85 TestFieldScenario.car[15].veinsmobility co2emission ETV
vector 86 TestFieldScenario.car[16].veinsmobility acceleration ETV
vector 87 TestFieldScenario.car[16].veinsmobility co2emission ETV
vector 88 TestFieldScenario.car[17].veinsmobility acceleration ETV
vector 89 TestFieldScenario.car[17].veinsmobility co2emission ETV
vector 90 TestFieldScenario.car[18].veinsmobility posx ETV
vector 91 TestFieldScenario.car[18].veinsmobility posy ETV
vector 92 TestFieldScenario.car[19].veinsmobility posx ETV
vector 93 TestFieldScenario.car[19].veinsmobility posy ETV
vector 94 TestFieldScenario.car[20].veinsmobility posx ETV
vector 95 TestFieldScenario.car[20].veinsmobility posy ETV
vector 96 TestFieldScenario.car[18].veinsmobility speed ETV
vector 97 TestFieldScenario.car[19].veinsmobility speed ETV
vector 98 TestFieldScenario.car[20].veinsmobility speed ETV
vector 99 TestFieldScenario.car[18].veinsmobility acceleration ETV
vector 100 TestFieldScenario.car[18].veinsmobility co2emission ETV
vector 101 TestFieldScenario.car[19].veinsmobility acceleration ETV
vector 102 TestFieldScenario.car[19].veinsmobility co2emission ETV
vector 103 TestFieldScenario.car[20].veinsmobility acceleration ETV
vector 104 TestFieldScenario.car[20].veinsmobility co2emission ETV
vector 105 TestFieldScenario.car[21].veinsmobility posx ETV
vector 106 TestFieldScenario.car[21].veinsmobility posy ETV
vector 107 TestFieldScenario.car[22].veinsmobility posx ETV
vector 108 TestFieldScenario.car[22].veinsmobility posy ETV
vector 109 TestFieldScenario.car[23].veinsmobility posx ETV
vector 110 TestFieldScenario.car[23].veinsmobility posy ETV
vector 111 TestFieldScenario.car[21].veinsmobility speed ETV
vector 112 TestFieldScenario.car[22].veinsmobility speed ETV
vector 113 TestFieldScenario.car[23].veinsmobility speed ETV
vector 114 TestFieldScenario.car[21].veinsmobility acceleration ETV
vector 115 TestFieldScenario.car[21].veinsmobility co2emission ETV
vector 116 TestFieldScenario.car[22].veinsmobility acceleration ETV
vector 117 TestFieldScenario.car[22].veinsmobility co2emission ETV
vector 118 TestFieldScenario.car[23].veinsmobility acceleration ETV
vector 119 TestFieldScenario.car[23].veinsmobility co2emission ETV
vector 120 TestFieldScenario.car[24].veinsmobility posx ETV
vector 121 TestFieldScenario.car[24].veinsmobility posy ETV
vector 122 TestFieldScenario.car[25].veinsmobility posx ETV
vector 123 TestFieldScenario.car[25].veinsmobility posy ETV
vector 124 TestFieldScenario.car[26].veinsmobility posx ETV
vector 125 TestFieldScenario.car[26].veinsmobility posy ETV
vector 126 TestFieldScenario.car[24].veinsmobility speed ETV
vector 127 TestFieldScenario.car[25].veinsmobility speed ETV
vector 128 TestFieldScenario.car[26].veinsmobility speed ETV
vector 129 TestFieldScenario.car[24].veinsmobility acceleration ETV
vector 130 TestFieldScenario.car[24].veinsmobility co2emission ETV
vector 131 TestFieldScenario.car[25].veinsmobility acceleration ETV
vector 132 TestFieldScenario.car[25].veinsmobility co2emission ETV
vector 133 TestFieldScenario.car[26].veinsmobility acceleration ETV
vector 134 TestFieldScenario.car[26].veinsmobility co2emission ETV
vector 135 TestFieldScenario.car[27].veinsmobility posx ETV
vector 136 TestFieldScenario.car[27].veinsmobility posy ETV
vector 137 TestFieldScenario.car[28].veinsmobility posx ETV
vector 138 TestFieldScenario.car[28].veinsmobility posy ETV
vector 139 TestFieldScenario.car[29].veinsmobility posx ETV
vector 140 TestFieldScenario.car[29].veinsmobility posy ETV
vector 141 TestFieldScenario.car[27].veinsmobility speed ETV
vector 142 TestFieldScenario.car[28].veinsmobility speed ETV
vector 143 TestFieldScenario.car[29].veinsmobility speed ETV
vector 144 TestFieldScenario.car[27].veinsmobility acceleration ETV
vector 145 TestFieldScenario.car[27].veinsmobility co2emission ETV
vector 146 TestFieldScenario.car[28].veinsmobility acceleration ETV
vector 147 TestFieldScenario.car[28].veinsmobility co2emission ETV
vector 148 TestFieldScenario.car[29].veinsmobility acceleration ETV
vector 149 TestFieldScenario.car[29].veinsmobility co2emission ETV
vector 150 TestFieldScenario.car[30].veinsmobility posx ETV
vector 151 TestFieldScenario.car[30].veinsmobility posy ETV
vector 152 TestFieldScenario.car[31].veinsmobility posx ETV
vector 153 TestFieldScenario.car[31].veinsmobility posy ETV
vector 154 TestFieldScenario.car[32].veinsmobility posx ETV
vector 155 TestFieldScenario.car[32].veinsmobility posy ETV
vector 156 TestFieldScenario.car[30].veinsmobility speed ETV
vector 157 TestFieldScenario.car[31].veinsmobility speed ETV
vector 158 TestFieldScenario.car[32].veinsmobility speed ETV
vector 159 TestFieldScenario.car[30].veinsmobility acceleration ETV
vector 160 TestFieldScenario.car[30].veinsmobility co2emission ETV
vector 161 TestFieldScenario.car[31].veinsmobility acceleration ETV
vector 162 TestFieldScenario.car[31].veinsmobility co2emission ETV
vector 163 TestFieldScenario.car[32].veinsmobility acceleration ETV
vector 164 TestFieldScenario.car[32].veinsmobility co2emission ETV
vector 165 TestFieldScenario.car[33].veinsmobility posx ETV
vector 166 TestFieldScenario.car[33].veinsmobility posy ETV
vector 167 TestFieldScenario.car[34].veinsmobility posx ETV
vector 168 TestFieldScenario.car[34].veinsmobility posy ETV
vector 169 TestFieldScenario.car[35].veinsmobility posx ETV
vector 170 TestFieldScenario.car[35].veinsmobility posy ETV
vector 171 TestFieldScenario.car[33].veinsmobility speed ETV
vector 172 TestFieldScenario.car[34].veinsmobility speed ETV
vector 173 TestFieldScenario.car[35].veinsmobility speed ETV
vector 174 TestFieldScenario.car[33].veinsmobility acceleration ETV
vector 175 TestFieldScenario.car[33].veinsmobility co2emission ETV
vector 176 TestFieldScenario.car[34].veinsmobility acceleration ETV
vector 177 TestFieldScenario.car[34].veinsmobility co2emission ETV
vector 178 TestFieldScenario.car[35].veinsmobility acceleration ETV
vector 179 TestFieldScenario.car[35].veinsmobility co2emission ETV
vector 180 TestFieldScenario.car[36].veinsmobility posx ETV
vector 181 TestFieldScenario.car[36].veinsmobility posy ETV
vector 182 TestFieldScenario.car[37].veinsmobility posx ETV
vector 183 TestFieldScenario.car[37].veinsmobility posy ETV
vector 184 TestFieldScenario.car[38].veinsmobility posx ETV
vector 185 TestFieldScenario.car[38].veinsmobility posy ETV
vector 186 TestFieldScenario.car[36].veinsmobility speed ETV
vector 187 TestFieldScenario.car[37].veinsmobility speed ETV
vector 188 TestFieldScenario.car[38].veinsmobility speed ETV
vector 189 TestFieldScenario.car[36].veinsmobility acceleration ETV
vector 190 TestFieldScenario.car[36].veinsmobility co2emission ETV
vector 191 TestFieldScenario.car[37].veinsmobility acceleration ETV
vector 192 TestFieldScenario.car[37].veinsmobility co2emission ETV
vector 193 TestFieldScenario.car[38].veinsmobility acceleration ETV
vector 194 TestFieldScenario.car[38].veinsmobility co2emission ETV
vector 195 TestFieldScenario.car[39].veinsmobility posx ETV
vector 196 TestFieldScenario.car[39].veinsmobility posy ETV
vector 197 TestFieldScenario.car[40].veinsmobility posx ETV
vector 198 TestFieldScenario.car[40].veinsmobility posy ETV
vector 199 TestFieldScenario.car[41].veinsmobility posx ETV
vector 200 TestFieldScenario.car[41].veinsmobility posy ETV
vector 201 TestFieldScenario.car[39].veinsmobility speed ETV
vector 202 TestFieldScenario.car[40].veinsmobility speed ETV
vector 203 TestFieldScenario.car[41].veinsmobility speed ETV
vector 204 TestFieldScenario.car[39].veinsmobility acceleration ETV
vector 205 TestFieldScenario.car[39].veinsmobility co2emission ETV
vector 206 TestFieldScenario.car[40].veinsmobility acceleration ETV
vector 207 TestFieldScenario.car[40].veinsmobility co2emission ETV
vector 208 TestFieldScenario.car[41].veinsmobility acceleration ETV
vector 209 TestFieldScenario.car[41].veinsmobility co2emission ETV
vector 210 TestFieldScenario.car[42].veinsmobility posx ETV
vector 211 TestFieldScenario.car[42].veinsmobility posy ETV
vector 212 TestFieldScenario.car[43].veinsmobility posx ETV
vector 213 TestFieldScenario.car[43].veinsmobility posy ETV
vector 214 TestFieldScenario.car[44].veinsmobility posx ETV
vector 215 TestFieldScenario.car[44].veinsmobility posy ETV
vector 216 TestFieldScenario.car[42].veinsmobility speed ETV
vector 217 TestFieldScenario.car[43].veinsmobility speed ETV
vector 218 TestFieldScenario.car[44].veinsmobility speed ETV
vector 219 TestFieldScenario.car[42].veinsmobility acceleration ETV
vector 220 TestFieldScenario.car[42].veinsmobility co2emission ETV
vector 221 TestFieldScenario.car[43].veinsmobility acceleration ETV
vector 222 TestFieldScenario.car[43].veinsmobility co2emission ETV
vector 223 TestFieldScenario.car[44].veinsmobility acceleration ETV
vector 224 TestFieldScenario.car[44].veinsmobility co2emission ETV
vector 225 TestFieldScenario.car[45].veinsmobility posx ETV
vector 226 TestFieldScenario.car[45].veinsmobility posy ETV
vector 227 TestFieldScenario.car[46].veinsmobility posx ETV
vector 228 TestFieldScenario.car[46].veinsmobility posy ETV
vector 229 TestFieldScenario.car[47].veinsmobility posx ETV
vector 230 TestFieldScenario.car[47].veinsmobility posy ETV
vector 231 TestFieldScenario.car[45].veinsmobility speed ETV
vector 232 TestFieldScenario.car[46].veinsmobility speed ETV
vector 233 TestFieldScenario.car[47].veinsmobility speed ETV
vector 234 TestFieldScenario.car[45].veinsmobility acceleration ETV
vector 235 TestFieldScenario.car[45].veinsmobility co2emission ETV
vector 236 TestFieldScenario.car[46].veinsmobility acceleration ETV
vector 237 TestFieldScenario.car[46].veinsmobility co2emission ETV
vector 238 TestFieldScenario.car[47].veinsmobility acceleration ETV
vector 239 TestFieldScenario.car[47].veinsmobility co2emission ETV
vector 240 TestFieldScenario.car[48].veinsmobility posx ETV
vector 241 TestFieldScenario.car[48].veinsmobility posy ETV
vector 242 TestFieldScenario.car[49].veinsmobility posx ETV
vector 243 TestFieldScenario.car[49].veinsmobility posy ETV
vector 244 TestFieldScenario.car[50].veinsmobility posx ETV
vector 245 TestFieldScenario.car[50].veinsmobility posy ETV
vector 246 TestFieldScenario.car[48].veinsmobility speed ETV
vector 247 TestFieldScenario.car[49].veinsmobility speed ETV
vector 248 TestFieldScenario.car[50].veinsmobility speed ETV
vector 249 TestFieldScenario.car[48].veinsmobility acceleration ETV
vector 250 TestFieldScenario.car[48].veinsmobility co2emission ETV
vector 251 TestFieldScenario.car[49].veinsmobility acceleration ETV
vector 252 TestFieldScenario.car[49].veinsmobility co2emission ETV
vector 253 TestFieldScenario.car[50].veinsmobility acceleration ETV
vector 254 TestFieldScenario.car[50].veinsmobility co2emission ETV
vector 255 TestFieldScenario.car[51].veinsmobility posx ETV
vector 256 TestFieldScenario.car[51].veinsmobility posy ETV
vector 257 TestFieldScenario.car[52].veinsmobility posx ETV
vector 258 TestFieldScenario.car[52].veinsmobility posy ETV
vector 259 TestFieldScenario.car[53].veinsmobility posx ETV
vector 260 TestFieldScenario.car[53].veinsmobility posy ETV
vector 261 TestFieldScenario.car[51].veinsmobility speed ETV
vector 262 TestFieldScenario.car[52].veinsmobility speed ETV
vector 263 TestFieldScenario.car[53].veinsmobility speed ETV
vector 264 TestFieldScenario.car[51].veinsmobility acceleration ETV
vector 265 TestFieldScenario.car[51].veinsmobility co2emission ETV
vector 266 TestFieldScenario.car[52].veinsmobility acceleration ETV
vector 267 TestFieldScenario.car[52].veinsmobility co2emission ETV
vector 268 TestFieldScenario.car[53].veinsmobility acceleration ETV
vector 269 TestFieldScenario.car[53].veinsmobility co2emission ETV
vector 270 TestFieldScenario.car[54].veinsmobility posx ETV
vector 271 TestFieldScenario.car[54].veinsmobility posy ETV
vector 272 TestFieldScenario.car[55].veinsmobility posx ETV
vector 273 TestFieldScenario.car[55].veinsmobility posy ETV
vector 274 TestFieldScenario.car[56].veinsmobility posx ETV
vector 275 TestFieldScenario.car[56].veinsmobility posy ETV
vector 276 TestFieldScenario.car[54].veinsmobility speed ETV
vector 277 TestFieldScenario.car[55].veinsmobility speed ETV
vector 278 TestFieldScenario.car[56].veinsmobility speed ETV
vector 279 TestFieldScenario.car[54].veinsmobility acceleration ETV
vector 280 TestFieldScenario.car[54].veinsmobility co2emission ETV
vector 281 TestFieldScenario.car[55].veinsmobility acceleration ETV
vector 282 TestFieldScenario.car[55].veinsmobility co2emission ETV
vector 283 TestFieldScenario.car[56].veinsmobility acceleration ETV
vector 284 TestFieldScenario.car[56].veinsmobility co2emission ETV
vector 285 TestFieldScenario.car[57].veinsmobility posx ETV
vector 286 TestFieldScenario.car[57].veinsmobility posy ETV
vector 287 TestFieldScenario.car[58].veinsmobility posx ETV
vector 288 TestFieldScenario.car[58].veinsmobility posy ETV
vector 289 TestFieldScenario.car[59].veinsmobility posx ETV
vector 290 TestFieldScenario.car[59].veinsmobility posy ETV
vector 291 TestFieldScenario.car[57].veinsmobility speed ETV
vector 292 TestFieldScenario.car[58].veinsmobility speed ETV
vector 293 TestFieldScenario.car[59].veinsmobility speed ETV
vector 294 TestFieldScenario.car[57].veinsmobility acceleration ETV
vector 295 TestFieldScenario.car[57].veinsmobility co2emission ETV
vector 296 TestFieldScenario.car[58].veinsmobility acceleration ETV
vector 297 TestFieldScenario.car[58].veinsmobility co2emission ETV
vector 298 TestFieldScenario.car[59].veinsmobility acceleration ETV
vector 299 TestFieldScenario.car[59].veinsmobility co2emission ETV
vector 300 TestFieldScenario.car[60].veinsmobility posx ETV
vector 301 TestFieldScenario.car[60].veinsmobility posy ETV
vector 302 TestFieldScenario.car[61].veinsmobility posx ETV
vector 303 TestFieldScenario.car[61].veinsmobility posy ETV
vector 304 TestFieldScenario.car[62].veinsmobility posx ETV
vector 305 TestFieldScenario.car[62].veinsmobility posy ETV
vector 306 TestFieldScenario.car[60].veinsmobility speed ETV
vector 307 TestFieldScenario.car[61].veinsmobility speed ETV
vector 308 TestFieldScenario.car[62].veinsmobility speed ETV
vector 309 TestFieldScenario.car[60].veinsmobility acceleration ETV
vector 310 TestFieldScenario.car[60].veinsmobility co2emission ETV
vector 311 TestFieldScenario.car[61].veinsmobility acceleration ETV
vector 312 TestFieldScenario.car[61].veinsmobility co2emission ETV
vector 313 TestFieldScenario.car[62].veinsmobility acceleration ETV
vector 314 TestFieldScenario.car[62].veinsmobility co2emission ETV
vector 315 TestFieldScenario.car[63].veinsmobility posx ETV
vector 316 TestFieldScenario.car[63].veinsmobility posy ETV
vector 317 TestFieldScenario.car[64].veinsmobility posx ETV
vector 318 TestFieldScenario.car[64].veinsmobility posy ETV
vector 319 TestFieldScenario.car[65].veinsmobility posx ETV
vector 320 TestFieldScenario.car[65].veinsmobility posy ETV
vector 321 TestFieldScenario.car[63].veinsmobility speed ETV
vector 322 TestFieldScenario.car[64].veinsmobility speed ETV
vector 323 TestFieldScenario.car[65].veinsmobility speed ETV
vector 324 TestFieldScenario.car[63].veinsmobility acceleration ETV
vector 325 TestFieldScenario.car[63].veinsmobility co2emission ETV
vector 326 TestFieldScenario.car[64].veinsmobility acceleration ETV
vector 327 TestFieldScenario.car[64].veinsmobility co2emission ETV
vector 328 TestFieldScenario.car[65].veinsmobility acceleration ETV
vector 329 TestFieldScenario.car[65].veinsmobility co2emission ETV
vector 330 TestFieldScenario.car[66].veinsmobility posx ETV
vector 331 TestFieldScenario.car[66].veinsmobility posy ETV
vector 332 TestFieldScenario.car[67].veinsmobility posx ETV
vector 333 TestFieldScenario.car[67].veinsmobility posy ETV
vector 334 TestFieldScenario.car[68].veinsmobility posx ETV
vector 335 TestFieldScenario.car[68].veinsmobility posy ETV
vector 336 TestFieldScenario.car[66].veinsmobility speed ETV
vector 337 TestFieldScenario.car[67].veinsmobility speed ETV
vector 338 TestFieldScenario.car[68].veinsmobility speed ETV
0	25164 1870 2 261251 1 68 68 30.1 1774.0496384145 52644.246191477 61695895.928352
1	27034 1097 2 261251 1 68 68 29.8 33 2109.6 65611.68
2	28131 1867 2 261251 1 68 68 30.1 1828.504798399 54691.891626314 66127777.03249
3	29998 1149 2 261251 1 68 68 26.6 29.8 1920.8 54430.88
4	31147 1870 2 261251 1 68 68 30.1 1817.9701425866 56101.157261374 68048937.152113
5	33017 1149 2 261251 1 68 68 26.6 29.8 1962.4 56777.12
6	34166 1868 85 261251 2 68 67 1.8865424470045 32.63112008731 1774.3019474096 51184.819966632
7	36034 1869 85 261251 2 68 67 2.0578714020317 32.488811633311 1830.4292341689 54341.877557781
8	37903 1867 85 261251 2 68 67 2.0332066265866 31.735512669163 1818.3236427685 52780.463808045
9	39770 1919 167 261251 3 68 66 -1.165284025293 2.5262731315568 28.465766548043 72.445285887196
10	41689 1864 167 261251 3 68 66 -1.3706331879177 16.547213763073 434.0315826332 4475.6299471549
11	43553 1986 167 261251 3 68 66 -1.1869572615018 2.5073980555186 29.966564367868 75.885904350174
12	45539 1901 167 261251 3 68 66 -1.6514094223309 22.524199340376 455.32809834752 4984.2666574949
13	47440 1986 167 261251 3 68 66 -1.0981119650183 2.5662959037116 28.420293555346 72.065862102967
14	49426 1880 167 261251 3 68 66 -0.77879804021594 17.891765855404 439.0844205284 4233.819695999
15	51306 1863 249 261251 4 68 65 30.1 1478.0658823579 43685.466638684 43001573.14441
16	53169 1145 249 261251 4 68 65 29.8 33 1985 60737
17	54314 1866 249 261251 4 68 65 30.1 1752.5826056777 51410.000614497 59917172.955794
18	56180 1175 249 261251 4 68 65 26.6 29.8 1799.4 49961.96
19	57355 1857 249 261251 4 68 65 30.1 1939.132368551 55571.491968246 71662515.547752
20	59212 1175 249 261251 4 68 65 26.6 29.8 1751.4 47254.76
21	60387 1858 522 261251 5 68 64 1.8164076185087 26.483151768011 1474.0988105445 36267.937725481
22	62245 1857 522 261251 5 68 64 2.5998513045954 31.450627657953 1753.775947669 51247.756973334
23	64102 1858 522 261251 5 68 64 1.8854387812782 35.683410987108 1943.8162543847 64354.345817417
24	65960 1903 794 261251 6 68 63 -1.0466483091004 2.213205013168 24.316520568056 58.149134759302
25	67863 1770 794 261251 6 68 63 0.18983923938399 14.440003764957 332.6972575084 2526.9559743008
26	69633 1917 794 261251 6 68 63 -0.95971209274139 2.5643961252412 28.693490686706 64.808964091572
27	71550 1821 794 261251 6 68 63 0.07566305477176 18.89060120213 423.62352568136 3936.8691096454
28	73371 1904 794 261251 6 68 63 -1.0817954411963 2.4745098020183 32.898447052449 77.151492420473
29	75275 1840 794 261251 6 68 63 -2.4163045513788 21.255565488517 520.35995472918 6159.2188146826
30	77115 1783 1066 261251 7 68 62 30.1 1234.1634924314 35180.556907523 28851098.012188
31	78898 1100 1066 261251 7 68 62 29.8 33 1895.6 58072.88
32	79998 1787 1066 261251 7 68 62 30.1 1534.1560146904 42939.231388667 43934512.892793
33	81785 1130 1066 261251 7 68 62 26.6 29.8 1758 50005.04
34	82915 1781 1066 261251 7 68 62 30.1 1710.9723400855 47561.328580628 54375435.68492
35	84696 1130 1066 261251 7 68 62 26.6 26.6 1649.2 43868.72
36	85826 1775 1637 261251 8 68 61 2.1003037793096 22.93258803276 1226.4392036873 26102.97399966
37	87601 1781 1637 261251 8 68 61 2.0844450560166 29.286628840501 1531.3185743909 41308.808016641
38	89382 1776 1637 261251 8 68 61 2.3992453218205 32.661542092548 1711.2059661345 51884.287269147
39	91158 1834 2208 261251 9 68 60 -1.1267586393049 2.5737160811434 20.275407476618 54.738853093722
40	92992 1687 2208 261251 9 68 60 0.47999468743953 15.628194570402 259.38512656342 1746.858510017
41	94679 1818 2208 261251 9 68 60 -1.1182030462427 2.4894425308332 25.178114644438 64.762638045789
42	96497 1718 2208 261251 9 68 60 -0.72830954962286 16.795327003078 354.57969581152 3189.5653570341
43	98215 1826 2208 261251 9 68 60 -1.0832469925983 2.5151275452692 27.934380727136 73.430434259616
44	100041 1744 2208 261251 9 68 60 -1.912910426797 18.638483036222 423.53205649597 4538.9819824084
45	101785 1707 2777 261251 10 68 59 30.1 1431.1665438268 37331.514929596 35345641.459451
46	103492 1056 2777 261251 10 68 59 26.6 33 1659 47065.72
47	104548 1699 2777 261251 10 68 59 30.1 1390.2961549503 35601.315209865 32523966.910923
48	106247 1082 2777 261251 10 68 59 26.6 29.8 1614.2 44272.76
49	107329 1698 2777 261251 10 68 59 30.1 1472.3943942234 39026.207834296 38251769.568048
50	109027 1082 2777 261251 10 68 59 26.6 26.6 1569.4 41746.04
51	110109 1698 3750 261251 11 68 58 1.5441806555958 29.72518714896 1430.1627138734 38236.67562526
52	111807 1698 3750 261251 11 68 58 2.1927444331115 29.724816065892 1389.0764738976 36393.272216886
53	113505 1694 3750 261251 11 68 58 1.5363052613102 29.28547540808 1471.1605896819 40247.350296014
54	115199 1730 4724 261251 12 68 57 -3.3738967454106 2.4912900930969 27.551989391096 106.4175848172
55	116929 1607 4724 261251 12 68 57 -0.46551167493004 20.27107383803 396.87307633688 4520.3939016953
56	118536 1714 4724 261251 12 68 57 -4.5 2.5646369240014 26.687574514236 123.6431724881
57	120250 1578 4724 261251 12 68 57 -0.49844078081788 19.42039604757 396.60342395327 4505.8802055373
58	121828 1733 4724 261251 12 68 57 -1.0538298622239 2.434692036733 27.329890197193 70.325799629625
59	123561 1631 4724 261251 12 68 57 -0.66397390512674 16.610424519494 359.41922846657 3408.4464309965
60	125192 1613 5697 261251 13 68 56 30.1 1167.2445311632 29633.827902468 23043117.146147
61	126805 919 5697 261251 13 68 56 33 33 1848 60984
62	127724 1619 5697 261251 13 68 56 30.1 1201.1366539681 31422.153155313 25613673.28807
63	129343 1031 5697 261251 13 68 56 29.8 29.8 1668.8 49730.24
64	130374 1620 5697 261251 13 68 56 30.1 1347.6323872435 33219.455581224 29646814.439899
65	131994 1031 5697 261251 13 68 56 26.6 26.6 1489.6 39623.36
66	133025 1612 7183 261251 14 68 55 1.5175942043075 24.635727197262 1160.2423660904 26377.729791779
67	134637 1611 7183 261251 14 68 55 2.4174969819607 27.873519161389 1193.249026942 27832.654121539
68	136248 1612 7183 261251 14 68 55 1.4898321218323 30.012412057883 1347.5447993014 36056.896352487
69	137860 1645 8677 261251 15 68 54 -1.9213171071792 2.4709355429979 21.580240722942 71.995608568008
70	139505 1522 8677 261251 15 68 54 0.08149091619822 17.668392561105 274.44420376918 2334.5425362158
71	141027 1643 8677 261251 15 68 54 -1.3796092310823 2.5762252358487 19.794875991897 72.574203834662
72	142670 1457 8677 261251 15 68 54 -0.060631596779113 14.801405423694 280.07416142704 2500.6993722637
73	144127 1632 8677 261251 15 68 54 -3.2864039672784 2.5304627731908 28.522579936051 115.97949788727
74	145759 1481 8677 261251 15 68 54 -0.46981059369065 23.159553959201 412.16789051079 5083.5321784655
75	147240 1537 10182 261251 16 68 53 30.1 1162.5945223764 28163.988300973 21979063.298004
76	148777 938 10182 261251 16 68 53 29.8 33 1646.6 51286.28
77	149715 1536 10182 261251 16 68 53 30.1 1227.1016250287 29680.138011997 24158595.187992
78	151251 980 10182 261251 16 68 53 26.6 29.8 1537.8 44719.88
79	152231 1539 10182 261251 16 68 53 30.1 1006.0410957086 24695.823625444 16559534.670613
80	153770 980 10182 261251 16 68 53 26.6 29.8 1525 43997.96
81	154750 1530 12302 261251 17 68 52 1.6839071209341 28.12303317786 1155.296145943 27790.039050154
82	156280 1528 12302 261251 17 68 52 2.2450350294122 29.47887175234 1224.0687716817 31009.721384768
83	157808 1530 12302 261251 17 68 52 2.2069726206042 21.938203107176 996.81399772287 20294.880356889
84	159338 1556 14358 261251 18 68 51 -1.6925804057085 2.5500469468068 21.117716445591 84.870889215452
85	160894 1406 14358 261251 18 68 51 -0.24915462134557 19.765713986194 294.336071522 2975.5066054763
86	162300 1544 14358 261251 18 68 51 -3.4413932065097 2.5555772969732 24.822111623664 99.664907210759
87	163844 1407 14358 261251 18 68 51 -0.62543536940838 20.413242234525 345.85442906219 3695.986554574
88	165251 1563 14358 261251 18 68 51 -1.0505333445773 2.4446697610198 18.665929393668 51.239193561055
89	166814 1381 14358 261251 18 68 51 0.973 13.417543392141 224.0299583219 1452.6930054244
90	168195 1447 16378 261251 19 68 50 30.1 1166.3011335994 25391.741507522 19459605.487088
91	169642 888 16378 261251 19 68 50 26.6 33 1458 42986.32
92	170530 1449 16378 261251 19 68 50 30.1 1262.3462334955 27092.226684134 22910950.046924
93	171979 926 16378 261251 19 68 50 26.6 29.8 1387.6 38626.64
94	172905 1448 16378 261251 19 68 50 30.1 1306.7259415977 29191.194613253 25738766.963407
95	174353 926 16378 261251 19 68 50 26.6 26.6 1330 35378
96	175279 1442 18897 261251 20 68 49 2.4242163747549 29.08390343976 1164.2028946037 30198.918632285
97	176721 1441 18897 261251 20 68 49 1.6248123938916 34.330405775283 1262.8155485458 36909.174285788
98	178162 1443 18897 261251 20 68 49 2.3377338049468 36.60843694684 1305.0323297649 38334.339562821
99	179605 1471 21277 261251 21 68 48 -1.1850718936184 2.5321104584029 25.577544629525 56.560685731997
100	181076 1452 21277 261251 21 68 48 0.14730212811436 20.67057652535 289.19891425419 2563.6258762462
101	182528 1494 21277 261251 21 68 48 -4.1779911614533 2.5962685778039 28.94450265647 136.33489347952
102	184022 1407 21277 261251 21 68 48 -1.1176317605323 23.203718390995 428.75388261433 6386.5607828137
103	185429 1491 21277 261251 21 68 48 -3.3462236082674 2.4932766029611 26.068654362267 127.14672409711
104	186920 1376 21277 261251 21 68 48 -1.2995552362851 25.506929015784 419.59233512516 6155.0963056117
105	188296 1408 23592 261251 22 68 47 30.1 973.20085976808 20939.069180818 13832597.579043
106	189704 879 23592 261251 22 68 47 29.8 33 1464.6 45757.08
107	190583 1411 23592 261251 22 68 47 30.1 1063.4294324402 22076.078838011 15557015.689629
108	191994 919 23592 261251 22 68 47 26.6 29.8 1307.8 36503.96
109	192913 1413 23592 261251 22 68 47 30.1 900.53172641493 19316.522018448 11595673.995035
110	194326 919 23592 261251 22 68 47 26.6 29.8 1333.4 37947.8
111	195245 1401 26455 261251 23 68 46 1.4269468483282 27.617426294684 964.45739715868 22149.707926472
112	196646 1401 26455 261251 23 68 46 1.796284639555 27.403553379078 1059.5741241351 26667.538949883
113	198047 1402 26455 261251 23 68 46 1.4436239231611 23.14144685686 892.89461970703 18706.451748536
114	199449 1428 29156 261251 24 68 45 -2.2473534909639 2.5275708992034 19.92959054227 72.932783551753
115	200877 1305 29156 261251 24 68 45 0.4768701405216 21.087382575422 237.92567439811 2305.9828389989
116	202182 1415 29156 261251 24 68 45 -1.0784717768664 2.5848300473765 24.448407055259 57.698349679714
117	203597 1296 29156 261251 24 68 45 0.95265633032867 13.803918140765 272.88440330948 2243.7694894557
118	204893 1428 29156 261251 24 68 45 -1.2937653219661 2.5667837712448 21.019269368936 53.448007614627
119	206321 1318 29156 261251 24 68 45 0.69593527836375 13.702013296006 211.4734282338 1480.381640653
120	207639 1315 31811 261251 25 68 44 30.1 870.37628001885 17426.649662327 10196910.555842
121	208954 774 31811 261251 25 68 44 33 33 1452 47916
122	209728 1320 31811 261251 25 68 44 30.1 866.88634818336 17540.851651144 10241809.698037
123	211048 862 31811 261251 25 68 44 29.8 29.8 1311.2 39073.76
124	211910 1316 31811 261251 25 68 44 30.1 1022.4934739435 19287.5783578 13090961.9803
125	213226 862 31811 261251 25 68 44 26.6 26.6 1170.4 31132.64
126	214088 1313 34990 261251 26 68 43 2.1774386041798 26.932089595943 862.70448253481 18938.036271242
127	215401 1310 34990 261251 26 68 43 1.9306441601831 27.315709200903 859.62172228946 18702.359887076
128	216711 1309 34990 261251 26 68 43 1.4452051295899 30.179256670906 1019.2134317281 27228.226844415
129	218020 1324 38091 261251 27 68 42 -3.6713678106215 2.5878362877294 20.250763911779 93.534187461016
130	219344 1205 38091 261251 27 68 42 0.4107004517131 19.370178596892 247.00836881666 2585.2995667172
131	220549 1328 38091 261251 27 68 42 -1.7002595444399 2.4189407535829 20.904729945921 68.186761909482
132	221877 1211 38091 261251 27 68 42 0.45516061870049 18.797623765472 228.06755253423 2066.1445049947
133	223088 1330 38091 261251 27 68 42 -1.2424458856197 2.4825185086112 25.374752655001 70.675905373126
134	224418 1260 38091 261251 27 68 42 -1.0451631526287 21.856376468889 271.71058237528 3101.8772647588
135	225678 1232 41134 261251 28 68 41 30.1 834.90538865376 15433.803675888 8654708.4864323
136	226910 723 41134 261251 28 68 41 33 33 1353 44649
137	227633 1232 41134 261251 28 68 41 30.1 945.82694736837 16986.425996761 10611057.016795
138	228865 805 41134 261251 28 68 41 26.6 29.8 1154.6 32619.56
139	229670 1226 41134 261251 28 68 41 30.1 983.55731937696 17556.21381681 11533108.164523
140	230896 805 41134 261251 28 68 41 26.6 26.6 1090.6 29009.96
141	231701 1224 44726 261251 29 68 40 2.0613208355848 25.748698966797 827.30185381697 18748.642938508
142	232925 1221 44726 261251 29 68 40 2.1464321597945 29.409961576726 941.47387767632 24372.74891997
143	234146 1224 44726 261251 29 68 40 1.8818428183345 31.272402479514 980.40153481176 26873.056138526
144	235370 1227 48280 261251 30 68 39 -1.4884985037693 2.5823568655644 20.435144327617 61.724815978678
145	236597 1104 48280 261251 30 68 39 0.973 15.927356873522 221.93948957643 1864.4909510488
146	237701 1225 48280 261251 30 68 39 -2.3585448855776 2.579432386905 23.600498148157 84.249739844171
147	238926 1132 48280 261251 30 68 39 0.9030735140145 18.520180118058 277.77376316359 3058.5335071534
148	240058 1230 48280 261251 30 68 39 -2.6113349400908 2.5479853944387 25.062372616465 86.978432535296
149	241288 1143 48280 261251 30 68 39 -0.84742154026496 20.144066715346 291.02802441976 3634.5396876993
150	242431 1136 51731 261251 31 68 38 30.1 829.03948169479 13900.946370779 7817439.0046235
151	243567 716 51731 261251 31 68 38 29.8 33 1183.6 36960.88
152	244283 1139 51731 261251 31 68 38 30.1 903.34201738742 14733.869345462 8835664.9560925
153	245422 748 51731 261251 31 68 38 26.6 29.8 1052.4 29233.52
154	246170 1140 51731 261251 31 68 38 30.1 755.57267069956 12233.452959787 6066219.622822
155	247310 748 51731 261251 31 68 38 26.6 29.8 1055.6 29414
156	248058 1135 55582 261251 32 68 37 2.4737683475018 31.934150099386 821.45822735379 20727.460125967
157	249193 1134 55582 261251 32 68 37 2.1753616272472 31.934150099386 900.74664170356 24683.427799976
158	250327 1131 55582 261251 32 68 37 1.4570373605238 26.120323503535 750.58985462439 17340.801106752
159	251458 1133 59330 261251 33 68 36 -2.4982758375819 2.361851227493 20.044977311501 75.639614247729
160	252591 1034 59330 261251 33 68 36 0.78266909870947 19.886451011546 244.33469132122 2731.9307297429
161	253625 1129 59330 261251 33 68 36 -1.6948711525106 2.5038403026992 25.329262688898 74.346977954645
162	254754 1043 59330 261251 33 68 36 -1.1988158077327 17.26936263279 280.48033909081 3228.4434372138
163	255797 1138 59330 261251 33 68 36 -2.0627924689484 2.5593781702686 23.660146564297 54.55489514213
164	256935 1074 59330 261251 33 68 36 0.57351217162754 14.427908669862 212.04928740661 1802.5788353614
165	258009 1049 62988 261251 34 68 35 30.1 725.13117867812 11254.741549132 5396212.3756854
166	259058 621 62988 261251 34 68 35 33 33 1155 38115
167	259679 1051 62988 261251 34 68 35 30.1 786.70309183369 11581.461792203 5902433.4386405
168	260730 691 62988 261251 34 68 35 26.6 29.8 991.8 28193.72
169	261421 1049 62988 261251 34 68 35 30.1 852.66367506338 12207.186038595 6853012.7046232
170	262470 691 62988 261251 34 68 35 26.6 26.6 931 24764.6
171	263161 1042 67197 261251 35 68 34 2.2150177409174 25.654327382149 719.74756933249 16717.733946411
172	264203 1042 67197 261251 35 68 34 2.5741558283335 30.541370560111 786.65459139397 20543.581983302
173	265245 1042 67197 261251 35 68 34 0.87007074034143 35.062257153277 852.58976224869 25145.141781666
174	266287 1046 71291 261251 36 68 33 -1.3071199746923 2.5938958732877 22.501372913459 56.372881981482
175	267333 998 71291 261251 36 68 33 0.31717411382697 14.171935695224 194.29983105105 1707.961761798
176	268331 1041 71291 261251 36 68 33 -2.8215743499617 2.5757585229119 27.477343731954 72.790573256704
177	269372 973 71291 261251 36 68 33 -0.91617626355556 18.928661811375 263.22699688009 2887.0146767143
178	270345 1036 71291 261251 36 68 33 -1.9082021313985 2.4864070746116 29.15601644496 84.835756166847
179	271381 964 71291 261251 36 68 33 0.018678378991948 25.414383794576 299.21750824784 4168.4692630552
180	272345 961 75319 261251 37 68 32 30.1 573.36469270336 7731.1861178222 2834652.3005152
181	273306 586 75319 261251 37 68 32 29.8 33 1030.4 33240.32
182	273892 962 75319 261251 37 68 32 30.1 684.01406964494 9077.64545547 4022008.776012
183	274854 634 75319 261251 37 68 32 29.8 29.8 953.6 28417.28
184	275488 962 75319 261251 37 68 32 30.1 704.16100640665 9500.1175128391 4367985.018406
185	276450 634 75319 261251 37 68 32 26.6 26.6 851.2 22641.92
186	277084 954 79850 261251 38 68 31 1.391914942814 26.289940844873 568.91181489856 11965.868789494
187	278038 954 79850 261251 38 68 31 2.0431028676452 29.226874523912 682.11673551237 17294.988538495
188	278992 954 79850 261251 38 68 31 2.1643769364804 29.226874523912 701.89746812076 18078.865650992
189	279946 948 84255 261251 39 68 30 -0.91406523743645 2.409625707753 24.255207252387 51.350927242961
190	280894 887 84255 261251 39 68 30 -0.06758218228043 14.970782290659 177.19747964276 1587.7949642994
191	281781 946 84255 261251 39 68 30 -1.064501968259 2.4022216955433 26.159562999793 53.420806967957
192	282727 917 84255 261251 39 68 30 -0.33660221304606 19.781947712597 214.21969873709 2139.7260238042
193	283644 948 84255 261251 39 68 30 -1.064501968259 2.5753193335608 25.672084777623 60.935102846004
194	284592 916 84255 261251 39 68 30 -0.33660221304606 20.548713973157 215.9374034803 2373.8238803335
195	285508 872 88574 261251 40 68 29 30.1 494.79646237784 6221.8719411882 2006202.2301583
196	286380 519 88574 261251 40 68 29 33 33 957 31581
197	286899 871 88574 261251 40 68 29 30.1 558.66133566125 6879.2402880305 2489279.3149848
198	287770 577 88574 261251 40 68 29 26.6 29.8 835.4 24128.84
199	288347 869 88574 261251 40 68 29 30.1 611.92326992392 7088.7710757242 2769777.2667499
200	289216 577 88574 261251 40 68 29 26.6 26.6 771.4 20519.24
201	289793 866 93471 261251 41 68 28 1.6644617240869 22.188122816911 485.69439402287 9540.2466021122
202	290659 862 93471 261251 41 68 28 2.3343344385736 26.027531417778 554.58886707903 12509.72625699
203	291521 865 93471 261251 41 68 28 1.4649344578618 31.124905368595 612.84883357838 16081.244281326
204	292386 860 98327 261251 42 68 27 -0.88322318361606 2.5750488391845 19.333469920947 42.484321177155
205	293246 805 98327 261251 42 68 27 0.973 12.397750822715 134.04805905237 988.33326498678
206	294051 854 98327 261251 42 68 27 -1.0644418796524 2.5374221659731 23.693196979204 49.587074127586
207	294905 805 98327 261251 42 68 27 0.2709997163694 15.949413603986 179.14992478734 1602.0155531505
208	295710 848 98327 261251 42 68 27 -0.87622645739466 2.5859588004183 29.560629196607 60.155657419477
209	296558 836 98327 261251 42 68 27 -1.2833883812713 19.669577766121 224.07890734816 2669.6392481562
210	297394 782 103050 261251 43 68 26 30.1 450.28129094021 4984.5271563765 1446693.2704312
211	298176 474 103050 261251 43 68 26 29.8 33 848.4 27711.12
212	298650 781 103050 261251 43 68 26 30.1 481.11405622045 5086.4045079099 1559677.2030733
213	299431 520 103050 261251 43 68 26 29.8 29.8 774.8 23089.04
214	299951 780 103050 261251 43 68 26 30.1 495.00806265852 5273.579773922 1673687.7765959
215	300731 520 103050 261251 43 68 26 26.6 26.6 691.6 18396.56
216	301251 769 108220 261251 44 68 25 1.499668734055 24.857513819054 445.00547632774 9168.2154494488
217	302020 771 108220 261251 44 68 25 1.5538190648891 27.220476603824 478.23453282427 10980.525431948
218	302791 771 108220 261251 44 68 25 1.5993419413222 27.130014568099 491.19546248308 11470.725797355
219	303562 761 113236 261251 45 68 24 -0.59695873681921 2.3146186842816 23.324516653473 47.671090261114
220	304323 734 113236 261251 45 68 24 0.46247953010126 17.594102263083 147.08175573137 1309.0879927189
221	305057 761 113236 261251 45 68 24 -1.0269982714598 2.5798067440512 25.666657538935 57.125739479512
222	305818 722 113236 261251 45 68 24 0.50254481368247 16.313495167172 174.90530521027 1854.2128239283
223	306540 761 113236 261251 45 68 24 -0.87802939799149 2.4372158599086 24.688057883244 51.483835066015
224	307301 733 113236 261251 45 68 24 0.973 17.945711049997 168.14600481424 1637.8819296703
225	308034 690 118179 261251 46 68 23 30.1 385.60169054012 3802.1272461741 945102.1355772
226	308724 434 118179 261251 46 68 23 29.8 33 727 23037.4
227	309158 690 118179 261251 46 68 23 30.1 362.47241373251 3554.0033611426 811593.16133838
228	309848 460 118179 261251 46 68 23 26.6 29.8 653.4 18620.12
229	310308 689 118179 261251 46 68 23 30.1 398.32967271006 3986.9825705285 1032105.2754327
230	310997 460 118179 261251 46 68 23 26.6 26.6 611.8 16273.88
231	311457 681 123677 261251 47 68 22 1.7628127445234 23.087496244886 377.8843400363 7539.5104294475
232	312138 680 123677 261251 47 68 22 2.0866617018357 23.305783371604 355.2187550145 6698.3388256885
233	312818 681 123677 261251 47 68 22 2.361729780538 23.199513199601 390.44230127183 7917.0428286723
234	313499 669 129051 261251 48 68 21 -0.61332518223207 2.5568108977051 20.619836751653 45.767623416624
235	314168 641 129051 261251 48 68 21 0.62600104693092 14.092851105383 122.67798442948 1066.3020973399
236	314809 651 129051 261251 48 68 21 -4.5 2.587000354426 20.759679580159 74.451746535575
237	315460 642 129051 261251 48 68 21 0.34792484913676 16.398499771442 136.71189555755 1298.5407560334
238	316102 669 129051 261251 48 68 21 -0.61332518223207 2.4677317447262 19.850898781235 45.126770138196
239	316771 641 129051 261251 48 68 21 0.62600104693092 14.804893238725 122.91104632628 1074.7955518867
240	317412 593 134365 261251 49 68 20 30.1 296.37165431441 2525.2189072731 470883.15787245
241	318005 360 134365 261251 49 68 20 33 33 660 21780
242	318365 597 134365 261251 49 68 20 30.1 323.53745844739 2735.457314462 556494.32599143
243	318962 400 134365 261251 49 68 20 29.8 29.8 596 17760.8
244	319362 595 134365 261251 49 68 20 30.1 327.36876769394 2795.3370777266 580388.43995036
245	319957 400 134365 261251 49 68 20 26.6 26.6 532 14151.2
246	320357 589 140208 261251 50 68 19 1.8826388683869 22.308015669724 288.57966998414 5261.9447806085
247	320946 588 140208 261251 50 68 19 1.8284741708543 24.94313660495 316.17921454941 6251.1442179627
248	321534 589 140208 261251 50 68 19 2.1277169603156 23.969949616548 320.07354929649 6335.5002679671
249	322123 568 145846 261251 51 68 18 -1.3613798573332 2.5100829127012 20.425376801337 45.979207197376
250	322691 535 145846 261251 51 68 18 0.973 14.623258249647 113.52222979826 1017.3270581995
251	323226 564 145846 261251 51 68 18 -2.1495937648712 2.5422566754743 20.913281931169 63.299066560408
252	323790 519 145846 261251 51 68 18 0.79161792143589 15.565979371325 134.99741664965 1485.0950853665
253	324309 567 145846 261251 51 68 18 -1.0378642037807 2.5182280034991 20.67706464224 45.470669633613
254	324876 547 145846 261251 51 68 18 0.79161792143589 16.171336515892 118.62784047549 1064.847250426
255	325423 503 151389 261251 52 68 17 30.1 238.12284929904 1701.2471377233 248268.96292426
256	325926 308 151389 261251 52 68 17 29.8 33 557.8 18312.04
257	326234 502 151389 261251 52 68 17 30.1 276.07481314621 1951.2055249264 332869.51788634
258	326736 340 151389 261251 52 68 17 29.8 29.8 506.6 15096.68
259	327076 501 151389 261251 52 68 17 30.1 262.83669451382 1853.8929054327 296997.74984336
260	327577 340 151389 261251 52 68 17 26.6 26.6 452.2 12028.52
261	327917 494 157540 261251 53 68 16 1.5065178312128 24.507802456323 232.53065175536 4309.9787652588
262	328411 492 157540 261251 53 68 16 2.1032664240804 27.3893874784 272.22510232252 5747.4579541236
263	328903 494 157540 261251 53 68 16 2.27555940561 26.856827018247 259.00013257975 5271.6854956442
264	329397 468 163523 261251 54 68 15 -0.38612671091687 2.578383639711 23.00128462511 44.652673420745
265	329865 465 163523 261251 54 68 15 1.1686734100531 14.605016144661 113.37481622785 1107.9548460822
266	330330 464 163523 261251 54 68 15 -1.2205462952935 2.5406404828886 24.147022752227 56.430782464214
267	330794 453 163523 261251 54 68 15 0.973 18.259594776532 135.86235654639 1636.0390587928
268	331247 468 163523 261251 54 68 15 -0.59338895231485 2.471990788728 23.987878660322 47.42629371605
269	331715 466 163523 261251 54 68 15 0.29460624326207 15.950718118101 128.20884826042 1379.6511358045
270	332181 412 169442 261251 55 68 14 30.1 163.66395317393 1034.8230990577 103264.87967509
271	332593 252 169442 261251 55 68 14 33 33 462 15246
272	332845 412 169442 261251 55 68 14 30.1 176.59704248819 1118.8253569018 121463.86228061
273	333257 280 169442 261251 55 68 14 29.8 29.8 417.2 12432.56
274	333537 412 169442 261251 55 68 14 30.1 182.96445224562 1155.5835056799 130455.27102018
275	333949 280 169442 261251 55 68 14 26.6 26.6 372.4 9905.84
276	334229 404 175939 261251 56 68 13 0.86711422019402 21.914082354167 155.4780355281 2424.7537060913
277	334633 400 175939 261251 56 68 13 2.2344180410728 21.20023960131 163.1972820895 2524.8541854384
278	335033 402 175939 261251 56 68 13 2.4726514888695 21.20023960131 173.52122767176 2851.7124263215
279	335435 373 182364 261251 57 68 12 -0.45724716375811 2.3586732738419 21.046968133973 43.153103269181
280	335808 359 182364 261251 57 68 12 0.973 14.375235812601 88.075088016922 841.98571390039
281	336167 359 182364 261251 57 68 12 -4.5 2.5550574116642 14.465821560238 56.320873192126
282	336526 361 182364 261251 57 68 12 0.973 12.715153917547 81.5683993138 693.84087205468
283	336887 372 182364 261251 57 68 12 -0.58534669245127 2.2950703679351 18.184123937271 36.649167331018
284	337259 360 182364 261251 57 68 12 0.973 12.715153917547 82.381761174219 714.26109587123
285	337619 317 188695 261251 58 68 11 30.1 118.0682641055 650.38765532595 47891.86830371
286	337936 198 188695 261251 58 68 11 33 33 363 11979
287	338134 319 188695 261251 58 68 11 30.1 127.80850856104 697.05538981834 55657.419156289
288	338453 220 188695 261251 58 68 11 29.8 29.8 327.8 9768.44
289	338673 319 188695 261251 58 68 11 30.1 114.71069328373 633.53221445973 44979.920662759
290	338992 220 188695 261251 58 68 11 26.6 26.6 292.6 7783.16
291	339212 309 195587 261251 59 68 10 1.6184868968204 18.891401605622 106.85966571113 1459.4552276744
292	339521 310 195587 261251 59 68 10 2.4120907992357 21.249908507266 118.95841706831 1763.1289676916
293	339831 310 195587 261251 59 68 10 1.4249999880092 20.378973861388 104.98966714512 1455.0311956143
294	340141 278 202441 261251 60 68 9 1.4556131141726 2.4216134528629 17.272914708802 34.156316543637
295	340419 277 202441 261251 60 68 9 2.8051578162187 10.34675730545 63.918058207178 503.27384615499
296	340696 277 202441 261251 60 68 9 1.6575258426834 2.5986827361397 18.83781770803 40.182398099754
297	340973 279 202441 261251 60 68 9 4.5015018539736 13.933208524767 76.868958389325 758.72630781411
298	341252 279 202441 261251 60 68 9 1.3764627527446 2.5956639242824 18.953973873379 41.609914601703
299	341531 278 202441 261251 60 68 9 3.5405715209956 14.386468229045 71.926731872697 720.19354148286
300	341809 226 209144 261251 61 68 8 30.1 77.040219182405 369.25099287378 19165.652696182
301	342035 144 209144 261251 61 68 8 33 33 264 8712
302	342179 226 209144 261251 61 68 8 30.1 71.579662082973 354.61950957458 17368.301060205
303	342405 160 209144 261251 61 68 8 29.8 29.8 238.4 7104.32
304	342565 226 209144 261251 61 68 8 30.1 75.212282512826 364.40484782478 18529.52155939
305	342791 160 209144 261251 61 68 8 26.6 26.6 212.8 5660.48
306	342951 214 216433 261251 62 68 7 2.489115762827 14.795248252107 61.735467434512 660.00464913437
307	343165 215 216433 261251 62 68 7 2.2096771613229 13.821224616747 55.30088669972 534.11103782489
308	343380 217 216433 261251 62 68 7 2.5127718885895 14.394828823442 59.507111336268 613.82613497003
309	343597 186 223553 261251 63 68 6 1.3613708443008 2.5731536938343 12.30613248928 26.209548739351
310	343783 185 223553 261251 63 68 6 4.1241241860056 10.216501356762 39.02715139224 279.04262999297
311	343968 186 223553 261251 63 68 6 1.5618144829292 2.5638816551771 11.611547455424 23.164707266356
312	344154 185 223553 261251 63 68 6 3.5668255815622 10.56070834144 34.975052853852 235.87387701697
313	344339 186 223553 261251 63 68 6 1.5303579621017 2.4375166976359 11.882056934852 24.133887726925
314	344525 186 223553 261251 63 68 6 4.0807761042443 8.6600391244948 37.176388261917 252.96734839117
315	344711 133 230643 261251 64 68 5 30.1 42.577723128884 171.66609136546 6006.027056384
316	344844 90 230643 261251 64 68 5 33 33 165 5445
317	344934 132 230643 261251 64 68 5 30.1 41.717943238374 170.41454165836 5905.8417616067
318	345066 100 230643 261251 64 68 5 29.8 29.8 149 4440.2
319	345166 133 230643 261251 64 68 5 30.1 39.248272795696 165.45043895235 5535.1097547129
320	345299 100 230643 261251 64 68 5 26.6 26.6 133 3537.8
321	345399 123 238242 261251 65 68 4 2.3020148800686 8.2835696557071 20.761292784591 127.70340524295
322	345522 123 238242 261251 65 68 4 2.206267282879 6.8813022261718 18.499245464546 97.8603832172
323	345645 124 238242 261251 65 68 4 1.3977752951207 6.2792917268584 15.427564522554 72.927433336099
324	345769 93 245816 261251 66 68 3 1.7823235963704 2.1921998833306 5.9815547756385 12.010592353526
325	345862 93 245816 261251 66 68 3 3.0677093443721 5.9384843205091 13.37728303617 63.78285893827
326	345955 93 245816 261251 66 68 3 1.3536901249085 1.6777965713525 4.6750349432929 7.3487291294385
327	346048 93 245816 261251 66 68 3 2.8732973956429 3.7170066331813 10.172018439869 34.900654357205
328	346141 92 245816 261251 66 68 3 1.5354097926989 1.7372663677437 4.8815164317377 7.9639446825499
329	346233 93 245816 261251 66 68 3 2.4233064748966 3.7593349889428 9.5175226951096 31.126446657043
330	346326 40 253288 261251 67 68 2 30.1 30.1 60.2 1812.02
331	346366 36 253288 261251 67 68 2 33 33 66 2178
332	346402 40 253288 261251 67 68 2 30.1 30.1 60.2 1812.02
333	346442 40 253288 261251 67 68 2 29.8 29.8 59.6 1776.08
334	346482 40 253288 261251 67 68 2 30.1 30.1 60.2 1812.02
335	346522 40 253288 261251 67 68 2 26.6 26.6 53.2 1415.12
336	346562 31 261251 261251 68 68 1 2.3226944326423 2.3226944326423 2.3226944326423 5.3949094274276
337	346593 31 261251 261251 68 68 1 1.6186800773954 1.6186800773954 1.6186800773954 2.6201251929568
338	346624 31 261251 261251 68 68 1 1.5227928203559 1.5227928203559 1.5227928203559 2.3188979737274
vector 339 TestFieldScenario.car[66].veinsmobility acceleration ETV
vector 340 TestFieldScenario.car[66].veinsmobility co2emission ETV
vector 341 TestFieldScenario.car[67].veinsmobility acceleration ETV
vector 342 TestFieldScenario.car[67].veinsmobility co2emission ETV
vector 343 TestFieldScenario.car[68].veinsmobility acceleration ETV
vector 344 TestFieldScenario.car[68].veinsmobility co2emission ETV
vector 345 TestFieldScenario.car[69].veinsmobility posx ETV
vector 346 TestFieldScenario.car[69].veinsmobility posy ETV
vector 347 TestFieldScenario.car[70].veinsmobility posx ETV
vector 348 TestFieldScenario.car[70].veinsmobility posy ETV
vector 349 TestFieldScenario.car[71].veinsmobility posx ETV
vector 350 TestFieldScenario.car[71].veinsmobility posy ETV
vector 351 TestFieldScenario.car[69].veinsmobility speed ETV
vector 352 TestFieldScenario.car[70].veinsmobility speed ETV
vector 353 TestFieldScenario.car[71].veinsmobility speed ETV
vector 354 TestFieldScenario.car[69].veinsmobility acceleration ETV
vector 355 TestFieldScenario.car[69].veinsmobility co2emission ETV
vector 356 TestFieldScenario.car[70].veinsmobility acceleration ETV
vector 357 TestFieldScenario.car[70].veinsmobility co2emission ETV
vector 358 TestFieldScenario.car[71].veinsmobility acceleration ETV
vector 359 TestFieldScenario.car[71].veinsmobility co2emission ETV
vector 360 TestFieldScenario.car[72].veinsmobility posx ETV
vector 361 TestFieldScenario.car[72].veinsmobility posy ETV
vector 362 TestFieldScenario.car[73].veinsmobility posx ETV
vector 363 TestFieldScenario.car[73].veinsmobility posy ETV
vector 364 TestFieldScenario.car[74].veinsmobility posx ETV
vector 365 TestFieldScenario.car[74].veinsmobility posy ETV
vector 366 TestFieldScenario.car[72].veinsmobility speed ETV
vector 367 TestFieldScenario.car[73].veinsmobility speed ETV
vector 368 TestFieldScenario.car[74].veinsmobility speed ETV
vector 369 TestFieldScenario.car[72].veinsmobility acceleration ETV
vector 370 TestFieldScenario.car[72].veinsmobility co2emission ETV
vector 371 TestFieldScenario.car[73].veinsmobility acceleration ETV
vector 372 TestFieldScenario.car[73].veinsmobility co2emission ETV
vector 373 TestFieldScenario.car[74].veinsmobility acceleration ETV
vector 374 TestFieldScenario.car[74].veinsmobility co2emission ETV
vector 375 TestFieldScenario.car[75].veinsmobility posx ETV
vector 376 TestFieldScenario.car[75].veinsmobility posy ETV
vector 377 TestFieldScenario.car[76].veinsmobility posx ETV
vector 378 TestFieldScenario.car[76].veinsmobility posy ETV
vector 379 TestFieldScenario.car[77].veinsmobility posx ETV
vector 380 TestFieldScenario.car[77].veinsmobility posy ETV
vector 381 TestFieldScenario.car[75].veinsmobility speed ETV
vector 382 TestFieldScenario.car[76].veinsmobility speed ETV
vector 383 TestFieldScenario.car[77].veinsmobility speed ETV
vector 384 TestFieldScenario.car[75].veinsmobility acceleration ETV
vector 385 TestFieldScenario.car[75].veinsmobility co2emission ETV
vector 386 TestFieldScenario.car[76].veinsmobility acceleration ETV
vector 387 TestFieldScenario.car[76].veinsmobility co2emission ETV
vector 388 TestFieldScenario.car[77].veinsmobility acceleration ETV
vector 389 TestFieldScenario.car[77].veinsmobility co2emission ETV
vector 390 TestFieldScenario.car[78].veinsmobility posx ETV
vector 391 TestFieldScenario.car[78].veinsmobility posy ETV
vector 392 TestFieldScenario.car[79].veinsmobility posx ETV
vector 393 TestFieldScenario.car[79].veinsmobility posy ETV
vector 394 TestFieldScenario.car[80].veinsmobility posx ETV
vector 395 TestFieldScenario.car[80].veinsmobility posy ETV
0	350321 318 269088 355426 69 79 11 1804.4019474096 2107.0552257249 21512.196885613 42171083.365309
1	350639 198 269088 355426 69 79 11 29.8 29.8 327.8 9768.44
2	350837 319 269088 355426 69 79 11 1860.5292341689 2177.6913124289 22210.87504064 44958251.208936
3	351156 198 269088 355426 69 79 11 26.6 29.8 299 8144.12
4	351354 319 269088 355426 69 79 11 1848.4236427685 2149.1994177483 21986.445914485 44045645.178123
5	351673 198 269088 355426 69 79 11 29.8 29.8 327.8 9768.44
6	351871 316 269088 355426 69 79 11 29.537365176239 31.277245187247 332.82305361233 10073.299007446
7	352187 319 269088 355426 69 79 11 30.989253277236 32.198877364507 348.15133153725 11020.876151551
8	352506 314 269088 355426 69 79 11 29.6156648747 30.67155434185 330.40999697011 9925.8547866887
9	352820 331 269088 355426 69 79 11 -1.6080817756299 1.0690181306713 -0.18253369805933 7.1825702713084
10	353151 308 269088 355426 69 79 11 0.973 13.175589548704 68.585505326399 619.63771299022
11	353459 348 269088 355426 69 79 11 -0.98507878091187 0.77043587844819 -1.0351824926639 3.329130173043
12	353807 322 269088 355426 69 79 11 -0.95396052432545 11.682664678257 56.737467780906 456.48691096559
13	354129 344 269088 355426 69 79 11 -1.040818850114 0.88627879165579 -0.8192781916545 3.6367265693795
14	354473 320 269088 355426 69 79 11 -1.0416946897556 11.806339234875 53.667264304444 418.72834913419
15	354793 329 269088 355426 69 79 11 1504.1988105445 1756.8551708985 17944.778742303 29344487.146412
16	355122 209 269088 355426 69 79 11 29.8 29.8 327.8 9768.44
17	355331 327 269088 355426 69 79 11 1783.875947669 2090.7481871356 21311.866794583 41394103.500816
18	355658 209 269088 355426 69 79 11 26.6 26.6 292.6 7783.16
19	355867 329 269088 355426 69 79 11 1973.9162543847 2318.3852145203 23597.099569056 50748999.222639
20	356196 209 269088 355426 69 79 11 26.6 29.8 315 9046.52
21	356405 330 269088 355426 69 79 11 24.356425954339 26.306429591918 278.18374872204 7037.9430938014
22	356735 327 269088 355426 69 79 11 30.219541348862 31.47169779101 338.06940382349 10392.283816514
23	357062 328 269088 355426 69 79 11 33.496660620901 35.81738485204 379.756845727 13119.623026197
24	357390 346 269088 355426 69 79 11 -1.0042019062443 1.0900169777218 -0.60553981853398 4.0368000026185
25	357736 311 269088 355426 69 79 11 0.12255573825874 10.971304095458 43.469132944472 289.90274782385
26	358047 345 269088 355426 69 79 11 -1.1361099065281 1.1721984855132 -0.096177634410559 6.7677635526367
27	358392 300 269088 355426 69 79 11 0.60067640566683 14.398551060006 67.796488968212 681.9763471297
28	358692 349 269088 355426 69 79 11 -1.9966003439799 1.3746412460403 0.50399975772016 8.1036526413498
29	359041 319 269088 355426 69 79 11 0.973 18.948491250338 88.583756050479 1038.9968194621
30	359360 330 269088 355426 69 79 11 1256.5392036873 1477.0198447867 15031.849583028 20594808.884742
31	359690 209 269088 355426 69 79 11 29.8 29.8 327.8 9768.44
32	359899 328 269088 355426 69 79 11 1561.4185743909 1846.3123263516 18743.366940734 32027513.416275
33	360227 209 269088 355426 69 79 11 26.6 29.8 308.6 8685.56
34	360436 330 269088 355426 69 79 11 1741.3059661345 2048.6199186673 20840.69724031 39588638.496143
35	360766 209 269088 355426 69 79 11 26.6 26.6 292.6 7783.16
36	360975 330 269088 355426 69 79 11 21.637331211042 22.517171982896 242.20181743589 5333.9381917757
37	361305 329 269088 355426 69 79 11 27.858890575171 29.238573076236 313.22612892889 8921.0093296506
38	361634 330 269088 355426 69 79 11 29.766766777426 31.451895551191 338.026100587 10390.954125852
39	361964 350 269088 355426 69 79 11 -0.7959956463892 0.75524970188271 -0.65453491942026 2.5218223203252
40	362314 311 269088 355426 69 79 11 0.33852721539127 7.3032617808838 34.406831531457 163.78564657354
41	362625 343 269088 355426 69 79 11 -1.1694533389062 0.68162527331151 1.0698172677308 3.0769981448016
42	362968 319 269088 355426 69 79 11 0.8096974208859 9.6326304859918 62.711190326313 440.78857194365
43	363287 338 269088 355426 69 79 11 -1.410305735852 1.6184280079843 0.37852200522423 10.90228854155
44	363625 301 269088 355426 69 79 11 0.40240713654122 17.768947680061 77.698785870519 915.09991327304
45	363926 328 269088 355426 69 79 11 1460.2627138734 1763.3220242991 17680.205216465 28516310.39058
46	364254 209 269088 355426 69 79 11 26.6 26.6 292.6 7783.16
47	364463 328 269088 355426 69 79 11 1419.1764738976 1715.2120495424 17217.020856355 27042483.705994
48	364791 209 269088 355426 69 79 11 26.6 26.6 292.6 7783.16
49	365000 329 269088 355426 69 79 11 1501.2605896819 1784.3618464349 18088.883211891 29834670.375454
50	365329 209 269088 355426 69 79 11 26.6 29.8 308.6 8685.56
51	365538 330 269088 355426 69 79 11 28.347280355482 34.486277261758 337.46898768997 10414.265226038
52	365868 327 269088 355426 69 79 11 28.74144025661 33.74851210114 329.78408774589 9917.0497851375
53	366195 329 269088 355426 69 79 11 27.111904642746 29.207162986723 310.33314938061 8761.2229472641
54	366524 342 269088 355426 69 79 11 -0.8199443784648 2.4445000560023 5.313507217634 15.829412658494
55	366866 330 269088 355426 69 79 11 -0.39361730919953 26.879216207441 100.92803753156 1816.0419728397
56	367196 342 269088 355426 69 79 11 -0.75657437879824 1.7514304389944 4.8681931537924 8.294671721754
57	367538 330 269088 355426 69 79 11 -0.5453830331834 19.70323831494 93.49548073371 1201.6434440408
58	367868 350 269088 355426 69 79 11 -0.76398162622936 0.64543506049085 -1.6343028308247 2.2790854251395
59	368218 335 269088 355426 69 79 11 -0.65842014045504 9.1627104317063 39.272607600235 240.18736825361
60	368553 329 269088 355426 69 79 11 1190.3423660904 1410.3899089545 14315.65514076 18684111.49351
61	368882 207 269088 355426 69 79 11 29.8 33 331 9969.4
62	369089 328 269088 355426 69 79 11 1223.349026942 1442.9997454946 14671.679985721 19622037.34017
63	369417 209 269088 355426 69 79 11 29.8 29.8 327.8 9768.44
64	369626 330 269088 355426 69 79 11 1377.6447993014 1669.2058887761 16748.912361748 25595132.091974
65	369956 209 269088 355426 69 79 11 26.6 26.6 292.6 7783.16
66	370165 326 269088 355426 69 79 11 20.4701071591 22.829274795614 241.81444927689 5321.6387420087
67	370491 330 269088 355426 69 79 11 21.208497912793 22.371761327881 241.78189309725 5315.7674419741
68	370821 325 269088 355426 69 79 11 28.283574756 31.327851510927 322.62861818185 9475.4282160404
69	371146 341 269088 355426 69 79 11 -2.0497734306964 1.3927973919398 -1.3309285144799 12.47249468637
70	371487 287 269088 355426 69 79 11 0.973 10.810520999586 45.911013255471 348.19273822518
71	371774 344 269088 355426 69 79 11 -1.0217066980656 0.52481802311477 -0.081198429221175 2.9622786218833
72	372118 312 269088 355426 69 79 11 0.48955294545895 6.0089396144335 38.763671410359 189.69643545639
73	372430 341 269088 355426 69 79 11 -1.9462412947393 2.3193089514039 1.0551166492836 18.806243953224
74	372771 300 269088 355426 69 79 11 0.973 22.972368519836 83.505171386895 1250.3466422838
75	373071 328 269088 355426 69 79 11 1185.396145943 1444.7955476921 14435.02344295 19017141.918899
76	373399 209 269088 355426 69 79 11 26.6 26.6 292.6 7783.16
77	373608 327 269088 355426 69 79 11 1254.1687716817 1544.7721633265 15391.094539832 21628178.863389
78	373935 209 269088 355426 69 79 11 26.6 26.6 292.6 7783.16
79	374144 330 269088 355426 69 79 11 1026.9139977229 1237.9050510841 12453.718179069 14148616.409286
80	374474 209 269088 355426 69 79 11 29.8 29.8 327.8 9768.44
81	374683 326 269088 355426 69 79 11 23.15588198608 28.7492213815 288.14862313064 7569.5504745965
82	375009 330 269088 355426 69 79 11 27.994961223838 30.252303634186 320.00834049976 9315.9784859988
83	375339 328 269088 355426 69 79 11 20.449327561448 21.709727738358 232.70078109957 4924.4978397861
84	375667 339 269088 355426 69 79 11 -0.5802567587628 2.3128391420469 5.9475978149757 9.578962821443
85	376006 331 269088 355426 69 79 11 0.25435683326493 18.060868448433 82.630453721408 881.63557536712
86	376337 338 269088 355426 69 79 11 -2.2573424103478 1.9989611132536 2.337802201931 23.258923652432
87	376675 300 269088 355426 69 79 11 0.973 19.499181908833 97.331149578395 1407.2010059076
88	376975 348 269088 355426 69 79 11 -0.48307157908566 0.91189484109636 0.8368257240858 3.1691389330701
89	377323 330 269088 355426 69 79 11 0.51576184608253 7.735381958655 37.741950094279 213.50926306628
90	377653 329 269088 355426 69 79 11 1194.3028946037 1480.0014236428 14710.055809285 19760812.291735
91	377982 209 269088 355426 69 79 11 26.6 26.6 292.6 7783.16
92	378191 329 269088 355426 69 79 11 1292.9155485458 1585.2881486807 15829.910987679 22875275.80867
93	378520 209 269088 355426 69 79 11 26.6 26.6 292.6 7783.16
94	378729 329 269088 355426 69 79 11 1335.1323297649 1626.5424188897 16301.417425315 24251264.008499
95	379058 209 269088 355426 69 79 11 26.6 26.6 292.6 7783.16
96	379267 329 269088 355426 69 79 11 28.191056562539 29.095579912558 314.79410895172 9009.5911586597
97	379596 327 269088 355426 69 79 11 28.00727069758 30.860283019375 320.37987083245 9340.1819522387
98	379923 329 269088 355426 69 79 11 28.263748948289 30.831424317235 322.24151344196 9450.7175760485
99	380252 347 269088 355426 69 79 11 -0.39166198689491 1.0399761325447 1.0938189082779 2.0877346818305
100	380599 341 269088 355426 69 79 11 1.8903598017349 12.052597611443 58.996212627104 415.72363909013
101	380940 351 269088 355426 69 79 11 -2.4960591428819 2.2651228141505 -2.5620443527817 28.544207779102
102	381291 290 269088 355426 69 79 11 0.973 22.16017793512 78.826321331478 1280.4660969258
103	381581 349 269088 355426 69 79 11 -2.464994956019 2.4537038957467 2.4250361500212 28.377793390647
104	381930 313 269088 355426 69 79 11 -0.34021514155655 23.536650163438 99.294375675469 1784.1494400456
105	382243 339 269088 355426 69 79 11 994.55739715868 1205.6435630773 12093.164603702 13344003.337463
106	382582 220 269088 355426 69 79 11 29.8 29.8 327.8 9768.44
107	382802 340 269088 355426 69 79 11 1089.6741241351 1356.4598034884 13460.135634484 16548877.376132
108	383142 220 269088 355426 69 79 11 26.6 26.6 292.6 7783.16
109	383362 340 269088 355426 69 79 11 922.99461970703 1140.1166490896 11343.420439597 11749412.308238
110	383702 220 269088 355426 69 79 11 29.8 29.8 327.8 9768.44
111	383922 340 269088 355426 69 79 11 19.967029963212 21.811749589443 231.97925977965 4895.9123358058
112	384262 341 269088 355426 69 79 11 26.160167902133 27.042683249882 293.69759944524 7842.7052320742
113	384603 340 269088 355426 69 79 11 21.177857851026 22.274767459438 238.72537629197 5181.9724431592
114	384943 355 269088 355426 69 79 11 -1.117298992283 1.5576242421586 -0.46344352956973 6.8785531206717
115	385298 300 269088 355426 69 79 11 0.973 11.308670651209 39.482282947429 268.48387750394
116	385598 358 269088 355426 69 79 11 -0.67786047067493 0.75175218975637 0.66722839707509 2.2071787572615
117	385956 343 269088 355426 69 79 11 -0.24618013757498 9.0844813557728 50.266907965304 322.71329784726
118	386299 358 269088 355426 69 79 11 -0.74629446852487 0.89089274653234 -0.85954638270196 3.694607057479
119	386657 312 269088 355426 69 79 11 0.84323122527249 7.9057719429232 34.652070188715 186.94796263376
120	386969 341 269088 355426 69 79 11 892.80448253481 1110.7154126101 11020.284412012 11092550.407119
121	387310 198 269088 355426 69 79 11 33 33 363 11979
122	387508 339 269088 355426 69 79 11 889.72172228946 1107.3447882674 10982.755249737 11017467.261811
123	387847 220 269088 355426 69 79 11 29.8 29.8 327.8 9768.44
124	388067 341 269088 355426 69 79 11 1049.3134317281 1319.0646027005 13032.245428099 15519860.50849
125	388408 220 269088 355426 69 79 11 26.6 26.6 292.6 7783.16
126	388628 340 269088 355426 69 79 11 21.201198921804 22.506785056768 239.7915866455 5228.8715013887
127	388968 340 269088 355426 69 79 11 20.854764892255 22.404083549624 239.26139891873 5207.1894345073
128	389308 337 269088 355426 69 79 11 26.278923827305 27.74831936627 296.26446504385 7981.2855795243
129	389645 358 269088 355426 69 79 11 -0.75371581010551 0.88622453237675 -0.54754594580317 3.6387924473929
130	390003 312 269088 355426 69 79 11 0.83150751332526 7.8883551330802 36.546464567806 196.87465770469
131	390315 355 269088 355426 69 79 11 -1.5493186573687 1.2290447305144 -1.1970411652759 8.0629221999784
132	390670 312 269088 355426 69 79 11 0.87351859430686 9.7114774546865 40.768464994506 263.54210413777
133	390982 359 269088 355426 69 79 11 -0.71512699781529 0.75397005202015 -0.30666371310266 2.7182268245318
134	391341 345 269088 355426 69 79 11 -0.47489319004728 9.4643440505177 44.726142921197 301.4025589226
135	391686 340 269088 355426 69 79 11 857.40185381697 1077.1091860663 10645.544128018 10354979.921363
136	392026 198 269088 355426 69 79 11 33 33 363 11979
137	392224 339 269088 355426 69 79 11 971.57387767632 1242.4098323291 12182.362186545 13572490.049944
138	392563 220 269088 355426 69 79 11 26.6 26.6 292.6 7783.16
139	392783 338 269088 355426 69 79 11 1010.5015348118 1281.3580389117 12613.241999822 14543985.804453
140	393121 220 269088 355426 69 79 11 26.6 26.6 292.6 7783.16
141	393341 337 269088 355426 69 79 11 21.051842709736 22.9115489632 241.26941342851 5297.132695449
142	393678 339 269088 355426 69 79 11 26.318676804673 27.718991190709 297.71311212785 8059.6960410301
143	394017 340 269088 355426 69 79 11 25.996622865503 27.824954571432 296.85312696545 8014.583391655
144	394357 352 269088 355426 69 79 11 -1.4575366503283 1.6545815374003 -0.93438398404563 12.850599492403
145	394709 300 269088 355426 69 79 11 0.973 12.462384614197 50.094083757592 404.60892020764
146	395009 354 269088 355426 69 79 11 -0.93319259378682 1.535208017523 1.1302271671181 6.5172595835757
147	395363 320 269088 355426 69 79 11 0.973 14.395968257983 59.91020392636 549.62190064787
148	395683 357 269088 355426 69 79 11 -1.0597198645003 0.80348398039172 -0.94759256929621 4.1419321952868
149	396040 311 269088 355426 69 79 11 0.80487192249739 9.5898308148523 48.760459691934 322.24171227133
150	396351 339 269088 355426 69 79 11 851.55822735379 1087.1599098348 10620.638375115 10313673.1547
151	396690 220 269088 355426 69 79 11 26.6 29.8 311.8 8866.04
152	396910 338 269088 355426 69 79 11 930.84664170356 1203.1436157972 11735.585240403 12602335.164033
153	397248 220 269088 355426 69 79 11 26.6 26.6 292.6 7783.16
154	397468 339 269088 355426 69 79 11 780.68985462439 1034.184868705 9978.8618570813 9123075.3757134
155	397807 220 269088 355426 69 79 11 26.6 26.6 292.6 7783.16
156	398027 339 269088 355426 69 79 11 21.542077726267 27.040747468032 262.64242994903 6320.4699397031
157	398366 341 269088 355426 69 79 11 26.433367669251 27.787523928933 298.73034176288 8114.8206095488
158	398707 340 269088 355426 69 79 11 24.833153991337 25.82598782315 278.85313393258 7070.3032186814
159	399047 355 269088 355426 69 79 11 -0.77652662806479 2.5784605984809 4.5220018090297 11.471198629564
160	399402 318 269088 355426 69 79 11 0.973 20.209356949973 70.324077838181 786.82485669306
161	399720 354 269088 355426 69 79 11 -0.87426849371071 1.003631994022 -1.0712566468941 3.9690893442529
162	400074 323 269088 355426 69 79 11 -0.095295868326957 11.045041809201 45.272558680883 318.52527354188
163	400397 356 269088 355426 69 79 11 -0.89802624529693 0.83704858755227 0.24093592714053 3.8519021413143
164	400753 322 269088 355426 69 79 11 0.14875256133482 9.1481436273803 49.159254592387 322.36114552134
165	401075 339 269088 355426 69 79 11 749.84756933249 1000.8653149114 9638.3441190166 8514412.3218138
166	401414 198 269088 355426 69 79 11 33 33 363 11979
167	401612 341 269088 355426 69 79 11 816.75459139397 1113.5124467104 10629.779383821 10369119.683149
168	401953 220 269088 355426 69 79 11 26.6 26.6 292.6 7783.16
169	402173 339 269088 355426 69 79 11 882.68976224869 1160.9240746563 11246.157783659 11583202.823004
170	402512 220 269088 355426 69 79 11 26.6 26.6 292.6 7783.16
171	402732 340 269088 355426 69 79 11 24.517960885751 25.708390374716 276.11288870326 6932.6204173291
172	403072 340 269088 355426 69 79 11 28.336834889009 30.398798733297 325.09469020544 9612.3068030949
173	403412 340 269088 355426 69 79 11 27.101417314645 28.662193199729 306.20358651778 8526.0786961178
174	403752 361 269088 355426 69 79 11 -0.96038912851364 0.99199972033966 0.3787524699932 3.3552244984476
175	404113 333 269088 355426 69 79 11 -0.16072084138531 10.065957538256 47.285798280627 302.1198850655
176	404446 359 269088 355426 69 79 11 -0.70557604648981 0.55198249623645 -1.7146646712784 1.7689373868464
177	404805 344 269088 355426 69 79 11 -0.22190655752363 9.0594084318267 42.309001842177 245.23389111045
178	405149 353 269088 355426 69 79 11 -1.5438373711863 0.83605120726905 -2.0568130751649 7.0909956814202
179	405502 311 269088 355426 69 79 11 0.973 10.442970746898 50.3045991638 371.48639446639
180	405813 340 269088 355426 69 79 11 599.01181489856 856.61078024692 8008.7056630206 5903491.3476451
181	406153 220 269088 355426 69 79 11 29.8 29.8 327.8 9768.44
182	406373 341 269088 355426 69 79 11 712.21673551237 978.37290752612 9311.5050894132 7959490.6027482
183	406714 220 269088 355426 69 79 11 29.8 29.8 327.8 9768.44
184	406934 339 269088 355426 69 79 11 731.99746812076 995.24631664531 9513.9773794889 8304855.0279526
185	407273 220 269088 355426 69 79 11 26.6 26.6 292.6 7783.16
186	407493 338 269088 355426 69 79 11 25.21373634399 26.358483466949 283.05093695744 7285.1366046578
187	407831 341 269088 355426 69 79 11 24.929138224911 27.836461714103 291.08531023865 7710.1950606655
188	408172 341 269088 355426 69 79 11 24.929138224911 27.560813572374 289.35293435853 7616.7497571325
189	408513 357 269088 355426 69 79 11 -0.87071507708169 1.0988495891215 -0.19515058612451 3.3573141781072
190	408870 331 269088 355426 69 79 11 0.15712412437617 11.053600643655 44.849612595882 298.28061968482
191	409201 358 269088 355426 69 79 11 -1.4487856706852 0.96712224546949 -3.2735276425276 6.2425584176395
192	409559 313 269088 355426 69 79 11 0.078200548423653 10.230697579708 37.114783490981 241.42801318587
193	409872 356 269088 355426 69 79 11 -1.4487856706852 1.1749476090682 -1.7323758801241 7.4889548197747
194	410228 313 269088 355426 69 79 11 0.078200548423653 11.404185268736 46.530274866204 367.52855142743
195	410541 341 269088 355426 69 79 11 515.79439402287 743.21179182993 6894.1826712395 4377390.8559584
196	410882 210 269088 355426 69 79 11 29.8 33 343.8 10773.24
197	411092 339 269088 355426 69 79 11 584.68886707903 840.7729871189 7839.8294233698 5659587.4722176
198	411431 220 269088 355426 69 79 11 26.6 26.6 292.6 7783.16
199	411651 341 269088 355426 69 79 11 642.94883357838 945.17896280986 8754.742632507 7068566.785724
200	411992 220 269088 355426 69 79 11 26.6 26.6 292.6 7783.16
201	412212 339 269088 355426 69 79 11 21.304454449975 24.641668779901 252.05906658695 5791.713260383
202	412551 339 269088 355426 69 79 11 24.847737058571 26.032629141903 280.97521684134 7178.4642410709
203	412890 340 269088 355426 69 79 11 27.188782954638 31.160930080923 329.41891218611 9879.3480156367
204	413230 353 269088 355426 69 79 11 -0.40709163609426 0.88444721679242 3.6437371348677 2.4714212737037
205	413583 341 269088 355426 69 79 11 0.96340023389115 8.3949704030441 57.033877077618 336.36624027992
206	413924 357 269088 355426 69 79 11 -1.037426758348 0.80387859768234 -1.1364346163115 2.6731216857643
207	414281 330 269088 355426 69 79 11 0.600997212142 8.8762970749979 39.518625977662 212.02802353256
208	414611 357 269088 355426 69 79 11 -1.6450587360456 0.62326057934174 -3.8367806998305 5.4061316253516
209	414968 320 269088 355426 69 79 11 0.973 9.874604443483 41.659213876581 237.96517014916
210	415288 341 269088 355426 69 79 11 475.10547632774 745.65539449109 6717.8633408243 4184099.828269
211	415629 220 269088 355426 69 79 11 26.6 29.8 295.8 7963.64
212	415849 339 269088 355426 69 79 11 508.33453282427 772.22157028408 7042.5888567296 4585695.4459481
213	416188 220 269088 355426 69 79 11 29.8 29.8 327.8 9768.44
214	416408 341 269088 355426 69 79 11 521.29546248308 787.46448325755 7198.8397613824 4789231.8347763
215	416749 220 269088 355426 69 79 11 26.6 26.6 292.6 7783.16
216	416969 340 269088 355426 69 79 11 25.718387991791 28.316398886885 298.49300656603 8106.5414401516
217	417309 340 269088 355426 69 79 11 26.046985814035 27.018849816047 290.54732571423 7675.275025974
218	417649 338 269088 355426 69 79 11 26.169574838781 27.1124422444 292.73076957007 7791.2683148406
219	417987 350 269088 355426 69 79 11 -1.1533682329307 1.5374342284224 3.1189030151455 10.096947242706
220	418337 318 269088 355426 69 79 11 0.973 14.39416223647 74.727681831906 818.39915982068
221	418655 357 269088 355426 69 79 11 -1.0202799047343 0.96439739530906 -0.56018834940624 4.0545860533074
222	419012 320 269088 355426 69 79 11 0.973 10.515208668274 48.264715670817 319.77645393019
223	419332 357 269088 355426 69 79 11 -0.60673496501986 0.78379636015743 0.27434897103813 2.4847929498537
224	419689 340 269088 355426 69 79 11 0.22420682051953 9.3232338867269 47.537422810221 312.77232316535
225	420029 338 269088 355426 69 79 11 407.9843400363 633.18458800926 5724.0149252966 3034750.2172527
226	420367 220 269088 355426 69 79 11 29.8 29.8 327.8 9768.44
227	420587 340 269088 355426 69 79 11 385.3187550145 612.20137323162 5482.9640839335 2789713.8471568
[...]
839	3128608 1361 1696099 2723269 169 210 42 30.1 911.14002582848 17042.05465431 10422212.503844
840	3129969 924 1696099 2723269 169 210 42 26.6 26.6 1117.2 29717.52
841	3130893 1382 1696099 2723269 169 210 42 2.2823111046338 25.463702048877 854.25577418148 18799.409096815
842	3132275 1390 1717578 2723269 170 210 41 -3.2186785084956 2.5636234093457 17.838382298746 89.216609572258
843	3133665 1292 1717578 2723269 170 210 41 0.50765630324143 15.842986652972 236.3406878119 2101.9343213708
844	3134957 1352 1717578 2723269 170 210 41 1.5728758258512 29.902029190974 846.30755598838 19436.060719362
845	3136309 1349 1717578 2723269 170 210 41 1.5956294735428 28.716465958172 895.67092501478 21728.967862505
846	3137658 1290 1738948 2723269 171 210 40 30.1 801.76633423312 14399.66000797 7643351.1667735
847	3138948 832 1738948 2723269 171 210 40 26.6 33 1256 39622.72
848	3139780 1347 1738948 2723269 171 210 40 -3.2088559880862 2.5183288279688 18.722165145571 102.62478185593
849	3141127 1194 1738948 2723269 171 210 40 0.973 22.108841784281 259.99092632688 3122.6805584842
850	3142321 1327 1738948 2723269 171 210 40 -4.5 2.5525995569536 13.03526971276 116.92245246511
851	3143648 1214 1738948 2723269 171 210 40 0.973 20.10329895627 252.28421545969 2618.3071790551
852	3144862 1262 1760352 2723269 172 210 39 30.1 823.32386194461 14684.080937715 8242813.8206967
853	3146124 858 1760352 2723269 172 210 39 29.8 29.8 1162.2 34633.56
854	3146982 1259 1760352 2723269 172 210 39 30.1 879.63514906706 14926.603917618 8807166.2595722
855	3148241 858 1760352 2723269 172 210 39 26.6 26.6 1037.4 27594.84
856	3149099 1285 1760352 2723269 172 210 39 2.2252092797542 27.019636257683 798.6859704908 17828.419064268
857	3150384 1285 1782184 2723269 173 210 38 -3.7900258855857 2.5852383376565 24.794426977929 98.175802516649
858	3151669 1201 1782184 2723269 173 210 38 0.973 17.979802752101 262.14737945744 2814.0533448447
859	3152870 1249 1782184 2723269 173 210 38 1.6061097819591 29.114524097078 815.14416012793 19388.663077282
860	3154119 1250 1782184 2723269 173 210 38 1.8620516313473 32.467026995814 869.61757825798 22612.738488063
861	3155369 1194 1804040 2723269 174 210 37 30.1 750.97216340363 12043.307504384 5935417.5803525
862	3156563 782 1804040 2723269 174 210 37 29.8 33 1153.8 36072.84
863	3157345 1252 1804040 2723269 174 210 37 -3.065996739991 2.5920918884454 20.314188401363 91.380758368846
864	3158597 1146 1804040 2723269 174 210 37 -0.20931994437422 18.403680397439 237.52374672176 2697.6871184472
865	3159743 1233 1804040 2723269 174 210 37 -4.5 2.5918691124534 18.220377559567 110.02068835112
866	3160976 1128 1804040 2723269 174 210 37 0.973 24.959287248667 276.71107558448 3526.8546720796
867	3162104 1164 1826105 2723269 175 210 36 30.1 841.43530622945 13255.721638697 7475963.9271296
868	3163268 792 1826105 2723269 175 210 36 26.6 29.8 1018.4 28901.28
869	3164060 1162 1826105 2723269 175 210 36 30.1 740.13960334214 11577.18095742 5647788.8049317
870	3165222 792 1826105 2723269 175 210 36 26.6 26.6 957.6 25472.16
871	3166014 1185 1826105 2723269 175 210 36 1.8849291407736 26.278089079757 745.95451052894 17175.722278901
872	3167199 1180 1848625 2723269 176 210 35 -1.098578706407 2.383823560155 23.197417984537 58.184105073798
873	3168379 1099 1848625 2723269 176 210 35 0.91801738943446 14.727282565711 209.00283635601 1913.0549333539
874	3169478 1154 1848625 2723269 176 210 35 2.4017542304471 32.557141204522 835.66291517371 22363.420243794
875	3170632 1153 1848625 2723269 176 210 35 2.1377158246702 25.921609437037 735.62986338101 17283.867106322
876	3171785 1098 1871205 2723269 177 210 34 30.1 706.75151892828 10413.945618238 4853035.741448
877	3172883 718 1871205 2723269 177 210 34 29.8 33 1061.2 33207.76
878	3173601 1147 1871205 2723269 177 210 34 -2.2038146456368 2.5389842739096 21.925854713805 86.184814759901
879	3174748 1063 1871205 2723269 177 210 34 -0.46765225198833 18.917491724426 263.94710906232 3221.660202065
880	3175811 1151 1871205 2723269 177 210 34 -1.0890124932164 2.5847653483506 23.452544214194 57.412716194342
881	3176962 1072 1871205 2723269 177 210 34 -0.11379013361025 17.45039450314 207.76124066223 1965.2539495487
882	3178034 1060 1893976 2723269 178 210 33 30.1 701.99739965937 9856.6252172883 4557613.0359043
883	3179094 726 1893976 2723269 178 210 33 26.6 29.8 922.6 25876.2
884	3179820 1067 1893976 2723269 178 210 33 30.1 665.66783194752 9055.8478639003 3919087.1346955
885	3180887 726 1893976 2723269 178 210 33 26.6 26.6 877.8 23349.48
886	3181613 1083 1893976 2723269 178 210 33 2.443639451568 27.995447343599 701.55302108523 16712.409112881
887	3182696 1078 1917119 2723269 179 210 32 -1.3019084905616 2.2419471572153 22.457862705377 60.094007305836
888	3183774 995 1917119 2723269 179 210 32 0.973 17.013196023944 208.40935414265 2096.302430072
889	3184769 1054 1917119 2723269 179 210 32 2.3507410735125 30.644757257663 696.5073929477 17307.385295397
890	3185823 1055 1917119 2723269 179 210 32 1.7694946134929 29.195455983444 661.81424723776 16030.415075672
891	3186878 1000 1940176 2723269 180 210 31 30.1 627.63353575117 8253.2971538431 3356669.1892235
892	3187878 652 1940176 2723269 180 210 31 29.8 33 971.8 30543.64
893	3188530 1046 1940176 2723269 180 210 31 -1.8185659475487 2.5450173925376 22.259252214819 67.902385121361
894	3189576 972 1940176 2723269 180 210 31 -0.0796502839514 22.455366431779 215.68983860415 2520.1703551512
895	3190548 1043 1940176 2723269 180 210 31 -1.4580734750597 2.4228237133473 24.476920676753 54.659186103835
896	3191591 986 1940176 2723269 180 210 31 0.3628051253324 16.694519870117 204.58050929621 2062.6461985228
897	3192577 964 1963619 2723269 181 210 30 30.1 588.61821264747 7344.7653287469 2782955.848981
898	3193541 660 1963619 2723269 181 210 30 26.6 29.8 836.4 23392.56
899	3194201 967 1963619 2723269 181 210 30 30.1 627.33206020714 7983.8151890117 3272571.5816315
900	3195168 660 1963619 2723269 181 210 30 26.6 26.6 798 21226.8
901	3195828 987 1963619 2723269 181 210 30 2.332117407443 26.998253831327 623.62867394645 14641.518830313
902	3196815 980 1987564 2723269 182 210 29 -0.77825292150956 2.518209171365 23.763020787843 51.495373275925
903	3197795 940 1987564 2723269 182 210 29 0.032374264203866 18.883932157642 186.56260566484 1752.2028995132
904	3198735 953 1987564 2723269 182 210 29 1.6876764446963 28.59697127018 584.85183189983 13644.214943393
905	3199688 954 1987564 2723269 182 210 29 2.4191270348616 28.958649274357 623.69014730333 15266.517365253
906	3200642 901 2011568 2723269 183 210 28 30.1 502.53302949953 6085.0831257151 1996532.9671161
907	3201543 560 2011568 2723269 183 210 28 33 33 924 30492
908	3202103 936 2011568 2723269 183 210 28 -3.0078557545523 2.4886862232117 24.645942807666 76.124184972127
909	3203039 882 2011568 2723269 183 210 28 0.14986677870589 19.425365274936 217.15641947019 2395.0120973604
910	3203921 942 2011568 2723269 183 210 28 -2.3529360731142 2.5496688806219 24.038960061327 65.376034695794
911	3204863 895 2011568 2723269 183 210 28 -0.47080451995235 16.441339723115 209.92797613539 2262.3819567723
912	3205758 867 2035755 2723269 184 210 27 30.1 517.26427054379 5774.5021087987 1924059.2338406
913	3206625 594 2035755 2723269 184 210 27 29.8 29.8 804.6 23977.08
914	3207219 866 2035755 2723269 184 210 27 30.1 529.43518653744 5665.3293714922 1898079.3282059
915	3208085 594 2035755 2723269 184 210 27 26.6 26.6 718.2 19104.12
916	3208679 890 2035755 2723269 184 210 27 1.9417542033829 23.373856193063 495.26478333727 10317.844278611
917	3209569 879 2060442 2723269 185 210 26 -0.85766158991028 2.5999212590512 20.889999634356 47.778526198545
918	3210448 829 2060442 2723269 185 210 26 0.25569279487717 15.157998961563 147.42003600546 1218.4447916711
919	3211277 856 2060442 2723269 185 210 26 1.9059795481851 26.592126437216 513.21216100191 11926.862837354
920	3212133 857 2060442 2723269 185 210 26 1.3566574548604 29.607587538079 528.14135256616 13067.359404062
921	3212990 801 2084993 2723269 186 210 25 30.1 460.19944961225 4710.8662350206 1399134.8476292
922	3213791 500 2084993 2723269 186 210 25 33 33 825 27225
923	3214291 846 2084993 2723269 186 210 25 -0.57896648964379 2.5518133935984 24.14191090994 50.951149699526
924	3215137 826 2084993 2723269 186 210 25 0.3592198631533 17.474404114521 166.99616792989 1660.829230476
925	3215963 840 2084993 2723269 186 210 25 -0.44851593696512 2.3349170430796 27.449508573861 51.854988345241
926	3216803 825 2084993 2723269 186 210 25 1.6550686730826 18.729175013924 191.19038155178 1983.9065782186
927	3217628 767 2109661 2723269 187 210 24 30.1 464.1697510113 4574.3188980785 1353255.7828743
928	3218395 528 2109661 2723269 187 210 24 29.8 29.8 715.2 21312.96
929	3218923 769 2109661 2723269 187 210 24 30.1 443.07939958787 4166.3440474798 1143670.5403729
930	3219692 528 2109661 2723269 187 210 24 26.6 26.6 638.4 16981.44
931	3220220 788 2109661 2723269 187 210 24 1.6848447607132 28.693403698752 453.31153099984 10375.775225043
932	3221008 766 2134460 2723269 188 210 23 -1.7671707846441 2.5554803116946 21.527236626879 66.095981985457
933	3221774 707 2134460 2723269 188 210 23 0.973 18.311548871696 171.95311733899 1979.600851863
934	3222481 755 2134460 2723269 188 210 23 2.076412870246 28.300531154416 461.5393069296 10971.36282903
935	3223236 756 2134460 2723269 188 210 23 2.300897071627 30.230368973339 442.1783555972 10606.123353508
936	3223992 702 2159121 2723269 189 210 22 30.1 354.64334867447 3430.9011241314 788800.25387906
937	3224694 440 2159121 2723269 189 210 22 33 33 726 23958
938	3225134 738 2159121 2723269 189 210 22 -0.83097523611504 2.5617683348712 25.393143048055 55.039359187394
939	3225872 713 2159121 2723269 189 210 22 0.8281072255673 16.472746738583 171.43937445948 1835.5023386877
940	3226585 731 2159121 2723269 189 210 22 -0.99172778762877 2.3165537748951 26.898058937701 51.287255085343
941	3227316 710 2159121 2723269 189 210 22 0.973 19.622416716568 182.74324206702 2101.5785220885
942	3228026 669 2183927 2723269 190 210 21 30.1 372.1581001573 3173.2849523046 736910.4593889
943	3228695 462 2183927 2723269 190 210 21 29.8 29.8 625.8 18648.84
944	3229157 670 2183927 2723269 190 210 21 30.1 394.05025879734 3268.9263745174 797887.75243662
945	3229827 462 2183927 2723269 190 210 21 26.6 26.6 558.6 14858.76
946	3230289 691 2183927 2723269 190 210 21 1.7921896351269 21.782821489048 345.67081820346 6503.3244191797
947	3230980 669 2209161 2723269 191 210 20 -1.179220446758 2.5991009845864 19.335279893867 47.162547180273
948	3231649 630 2209161 2723269 191 210 20 0.64519338008826 14.249668699578 117.69252839464 971.83678313582
949	3232279 658 2209161 2723269 191 210 20 1.9201155035058 27.718584982887 369.69184476377 8338.4974401018
950	3232937 660 2209161 2723269 191 210 20 1.7798578931717 31.477038481527 394.34522949922 9709.8742638183
951	3233597 600 2234462 2723269 192 210 19 30.1 304.5004096253 2385.8043187457 448975.3467666
952	3234197 380 2234462 2723269 192 210 19 33 33 627 20691
953	3234577 636 2234462 2723269 192 210 19 -0.32773181053344 2.5382176551968 25.713629102962 49.614989658094
954	3235213 623 2234462 2723269 192 210 19 2.136935838541 16.961644722165 155.17948435157 1586.8883383112
955	3235836 631 2234462 2723269 192 210 19 -1.0393378781552 2.5589530458441 28.615112808704 60.132934178731
956	3236467 615 2234462 2723269 192 210 19 0.973 20.032528675909 185.68799557289 2305.6441105568
957	3237082 572 2260068 2723269 193 210 18 30.1 319.22197897935 2395.8354886044 478632.47994816
958	3237654 396 2260068 2723269 193 210 18 29.8 29.8 536.4 15984.72
959	3238050 572 2260068 2723269 193 210 18 30.1 295.40827607834 2143.7538851954 383995.39502945
960	3238622 396 2260068 2723269 193 210 18 26.6 26.6 478.8 12736.08
961	3239018 592 2260068 2723269 193 210 18 2.4638430558378 25.535047075475 298.45438329821 6099.5556100972
962	3239610 568 2286091 2723269 194 210 17 -1.2134742899152 2.4939445631811 21.590130617069 47.290933224571
963	3240178 551 2286091 2723269 194 210 17 0.973 19.037940436806 124.87734418115 1328.8296880828
964	3240729 558 2286091 2723269 194 210 17 2.5618264406221 27.545494253241 315.89281568565 7059.3271979647
965	3241287 557 2286091 2723269 194 210 17 2.490038015577 29.431429654208 294.73970573255 6525.7578392543
966	3241844 504 2312278 2723269 195 210 16 30.1 234.45811823374 1601.9615091118 230410.67614508
967	3242348 322 2312278 2723269 195 210 16 29.8 33 524.8 17223.04
968	3242670 506 2312278 2723269 195 210 16 30.1 196.39060891796 1379.8186293216 167737.04286299
969	3243176 352 2312278 2723269 195 210 16 26.6 29.8 470.4 13847.68
970	3243528 532 2312278 2723269 195 210 16 -0.47553809012752 2.5500963393133 24.20901026568 54.405452101213
971	3244060 526 2312278 2723269 195 210 16 1.1057488804754 18.373622869992 140.74306338314 1591.9086846625
972	3244586 527 2312278 2723269 195 210 16 -0.1501811104361 2.4995335306274 26.941391638631 54.106761412434
973	3245113 526 2312278 2723269 195 210 16 3.2548178949866 19.685505842558 156.8666467068 1966.9597018801
974	3245639 471 2338905 2723269 196 210 15 30.1 217.06166099019 1410.5059522122 186737.72343153
975	3246110 330 2338905 2723269 196 210 15 26.6 26.6 399 10613.4
976	3246440 493 2338905 2723269 196 210 15 2.0571990399389 26.149758780248 230.50787701399 4421.786709107
977	3246933 494 2338905 2723269 196 210 15 0.55175459935803 21.528442238801 187.81905115676 3005.6096298036
978	3247427 465 2365631 2723269 197 210 14 -0.040159285604023 2.490568494075 24.092559740309 47.084030529769
979	3247892 461 2365631 2723269 197 210 14 2.8958455233544 16.249272956999 122.75874650396 1291.6696151289
980	3248353 462 2365631 2723269 197 210 14 -2.1830833011597 2.5082869307138 20.976687639443 49.176653053562
981	3248815 450 2365631 2723269 197 210 14 0.973 14.29810562244 98.742519359625 882.23307161167
982	3249265 462 2365631 2723269 197 210 14 2.2837410047418 27.827513207169 214.78917419736 4136.9478729309
983	3249727 406 2392269 2723269 198 210 13 30.1 153.19739110039 928.4155388193 87763.766917185
984	3250133 260 2392269 2723269 198 210 13 33 33 429 14157
985	3250393 429 2392269 2723269 198 210 13 1.3943476623856 2.5518511843868 25.543772202428 52.501505314916
986	3250822 426 2392269 2723269 198 210 13 4.3275847947527 19.853667935216 131.93267285887 1617.5026196881
987	3251248 373 2419036 2723269 199 210 12 30.1 134.7331658643 783.10407501471 65357.168275737
988	3251621 264 2419036 2723269 199 210 12 29.8 29.8 357.6 10656.48
989	3251885 373 2419036 2723269 199 210 12 30.1 139.67826860026 808.7987675359 70104.538326123
990	3252258 264 2419036 2723269 199 210 12 26.6 26.6 319.2 8490.72
991	3252522 395 2419036 2723269 199 210 12 1.7223363134079 19.014386976915 141.69155664603 2096.6198003919
992	3252917 361 2446275 2723269 200 210 11 -0.42022143127397 2.4003427366028 16.871829232234 33.111479902328
993	3253278 362 2446275 2723269 200 210 11 0.71777440167823 9.835232937351 67.392959661713 497.78866076992
994	3253640 362 2446275 2723269 200 210 11 1.7833656516159 20.298857520265 124.93202338456 1793.2898359396
995	3254002 362 2446275 2723269 200 210 11 2.3048547739396 20.660928999353 130.23919759961 1919.4880183059
996	3254364 307 2473465 2723269 201 210 10 30.1 97.415155789047 528.0690370007 32919.073210334
997	3254671 200 2473465 2723269 201 210 10 33 33 330 10890
998	3254871 329 2473465 2723269 201 210 10 1.3359102663584 2.441926589096 18.515491868649 35.485909631833
999	3255200 329 2473465 2723269 201 210 10 3.1654656430458 11.898524519424 73.23540885817 603.97412071726
1000	3255529 338 2473465 2723269 201 210 10 1.3165255956817 2.0803455763496 18.356074225414 34.41941610188
1001	3255867 338 2473465 2723269 201 210 10 3.2469166537963 12.41045901486 75.122792635278 631.74341171493
1002	3256205 284 2500671 2723269 202 210 9 30.1 73.962807401177 397.62219747799 19513.114340051
1003	3256489 207 2500671 2723269 202 210 9 29.8 29.8 268.2 7992.36
1004	3256696 284 2500671 2723269 202 210 9 30.1 90.725386810466 455.01617977563 26837.613820459
1005	3256980 207 2500671 2723269 202 210 9 26.6 26.6 239.4 6368.04
1006	3257187 306 2500671 2723269 202 210 9 2.4728467933368 16.586064430559 83.901220219606 979.00378878506
1007	3257493 272 2528176 2723269 203 210 8 1.4519991241861 2.1080756183481 14.113217637222 25.408875884807
1008	3257765 269 2528176 2723269 203 210 8 2.6783481433806 9.918131956836 49.46809728099 350.03585014014
1009	3258034 271 2528176 2723269 203 210 8 1.4274070258019 14.301344287419 58.164151688595 565.1753364253
1010	3258305 272 2528176 2723269 203 210 8 2.4501359709073 16.126638138271 76.752024948737 907.30783730209
1011	3258577 214 2555507 2723269 204 210 7 30.1 59.403610606981 280.75348244519 12009.059387174
1012	3258791 147 2555507 2723269 204 210 7 33 33 231 7623
1013	3258938 237 2555507 2723269 204 210 7 1.3275560449809 2.366321552312 12.873937261617 24.776416033049
1014	3259175 238 2555507 2723269 204 210 7 2.3261975627078 10.082465516404 38.478061033736 264.0181090358
1015	3259413 237 2555507 2723269 204 210 7 1.4077967130579 2.4833749975078 13.676502167364 27.497664636305
1016	3259650 238 2555507 2723269 204 210 7 3.3153622718107 8.5619795589367 46.379208514384 331.15324536717
1017	3259888 181 2582897 2723269 205 210 6 30.1 45.53456076624 209.94344602924 7532.9367698781
1018	3260069 138 2582897 2723269 205 210 6 29.8 29.8 178.8 5328.24
1019	3260207 181 2582897 2723269 205 210 6 30.1 47.71115314092 216.21683581967 8036.7274185265
1020	3260388 138 2582897 2723269 205 210 6 26.6 26.6 159.6 4245.36
1021	3260526 203 2582897 2723269 205 210 6 2.3122713173972 11.062166814436 40.365777421417 326.02032491398
1022	3260729 170 2610778 2723269 206 210 5 1.6168266065186 1.8936415670905 8.749895497039 15.36636016995
1023	3260899 169 2610778 2723269 206 210 5 2.9500406999568 6.2811545853735 23.60747416652 117.96206768722
1024	3261068 169 2610778 2723269 206 210 5 1.217161485956 8.7785556145319 24.213116380772 153.84464350005
1025	3261237 170 2610778 2723269 206 210 5 1.9959013476036 8.6310640163487 26.242217157269 166.25381732904
1026	3261407 114 2638578 2723269 207 210 4 30.1 34.390356437047 126.13840302234 3989.9958592147
1027	3261521 84 2638578 2723269 207 210 4 33 33 132 4356
1028	3261605 136 2638578 2723269 207 210 4 1.6310407591751 2.3289577159798 7.5613941285759 14.609922244326
1029	3261741 134 2638578 2723269 207 210 4 2.400078323985 5.706864406404 16.520046956837 76.135706458897
1030	3261875 136 2638578 2723269 207 210 4 1.3446599776857 1.9962946600746 6.635162668745 11.223461227991
1031	3262011 135 2638578 2723269 207 210 4 2.357144930982 5.1078234640616 15.566454594852 64.483698476507
1032	3262146 80 2666602 2723269 208 210 3 30.1 31.051944578951 91.251944578951 2776.2432621342
1033	3262226 69 2666602 2723269 208 210 3 29.8 29.8 89.4 2664.12
1034	3262295 80 2666602 2723269 208 210 3 30.1 31.717158675659 91.917158675659 2817.998154457
1035	3262375 69 2666602 2723269 208 210 3 26.6 26.6 79.8 2122.68
1036	3262444 102 2666602 2723269 208 210 3 1.4480465852888 4.6031022722367 8.8934587092837 31.364114735239
1037	3262546 68 2694983 2723269 209 210 2 1.3942632664694 1.7607924204785 3.1550556869479 5.0443600042405
1038	3262614 68 2694983 2723269 209 210 2 2.2042999539012 3.2943945785138 5.498694532415 15.71197392571
1039	3262682 69 2694983 2723269 209 210 2 0.95194457895065 2.8651536831627 3.8170982621133 9.115304109534
1040	3262751 68 2694983 2723269 209 210 2 1.6171586756594 4.1622856222559 5.7794442979153 19.939823783499
1041	3262819 23 2723269 2723269 210 210 1 30.1 30.1 30.1 906.01
1042	3262842 21 2723269 2723269 210 210 1 33 33 33 1089
1043	3262863 33 2723269 2723269 210 210 1 1.913209104212 1.913209104212 1.913209104212 3.6603690764397
1044	3262896 34 2723269 2723269 210 210 1 2.5714625820885 2.5714625820885 2.5714625820885 6.6124198110811
1045	3262930 34 2723269 2723269 210 210 1 2.5451269465964 2.5451269465964 2.5451269465964 6.4776711742913
1046	3262964 34 2723269 2723269 210 210 1 3.8704945181051 3.8704945181051 3.8704945181051 14.980727814682

